File C:\Users\Rnursafin\Downloads\1_model.$2k was saved on m/d/yy at h:mm:ss
 
TABLE:  "ACTIVE DEGREES OF FREEDOM"
   UX=Yes   UY=Yes   UZ=Yes   RX=Yes   RY=Yes   RZ=Yes
 
TABLE:  "ANALYSIS OPTIONS"
   Solver=Advanced   SolverProc=Auto   Force32Bit=No   StiffCase=None   GeomMod=None   HingeOpt="In Elements"   NumAThreads=0   MaxFileSize=0   NumDThreads=0   NumRThreads=0   UseMMFiles="Program Determined"   AllowDiff=No
 
TABLE:  "AUTO WAVE 3 - WAVE CHARACTERISTICS - GENERAL"
   WaveChar=Default   WaveType="From Theory"   KinFactor=1   SWaterDepth=45   WaveHeight=18   WavePeriod=12   WaveTheory=Linear
 
TABLE:  "CASE - MODAL 1 - GENERAL"
   Case=MODAL   ModeType=Eigen   MaxNumModes=12   MinNumModes=1   EigenShift=0   EigenCutoff=0   EigenTol=1E-09   AutoShift=Yes
 
TABLE:  "CASE - STATIC 1 - LOAD ASSIGNMENTS"
   Case=DEAD   LoadType="Load pattern"   LoadName=DEAD   LoadSF=1
 
TABLE:  "COORDINATE SYSTEMS"
   Name=GLOBAL   Type=Cartesian   X=0   Y=0   Z=0   AboutZ=0   AboutY=0   AboutX=0
 
TABLE:  "DATABASE DOCUMENTATION"
 
TABLE:  "DATABASE FORMAT TYPES"
   UnitsCurr=Yes   OverrideE=No
 
TABLE:  "FUNCTION - PLOT FUNCTIONS"
   PlotFunc="Input Energy"   Type=Energy   Component=Input   Mode=All
 
TABLE:  "FUNCTION - POWER SPECTRAL DENSITY - USER"
   Name=UNIFPSD   Frequency=0   Value=1
   Name=UNIFPSD   Frequency=1   Value=1
 
TABLE:  "FUNCTION - RESPONSE SPECTRUM - USER"
   Name=UNIFRS   Period=0   Accel=1   FuncDamp=0,05
   Name=UNIFRS   Period=1   Accel=1
 
TABLE:  "FUNCTION - STEADY STATE - USER"
   Name=UNIFSS   Frequency=0   Value=1
   Name=UNIFSS   Frequency=1   Value=1
 
TABLE:  "FUNCTION - TIME HISTORY - USER"
   Name=RAMPTH   Time=0   Value=0
   Name=RAMPTH   Time=1   Value=1
   Name=RAMPTH   Time=4   Value=1
   Name=UNIFTH   Time=0   Value=1
   Name=UNIFTH   Time=1   Value=1
 
TABLE:  "GROUPS 1 - DEFINITIONS"
   GroupName=ALL   Selection=Yes   SectionCut=Yes   Steel=Yes   Concrete=Yes   Aluminum=Yes   ColdFormed=Yes   Stage=Yes   Bridge=Yes   AutoSeismic=No   AutoWind=No   SelDesSteel=No   SelDesAlum=No   SelDesCold=No   MassWeight=Yes   Color=Red
 
TABLE:  "JOINT PATTERN DEFINITIONS"
   Pattern=Default
 
TABLE:  "LOAD CASE DEFINITIONS"
   Case=DEAD   Type=LinStatic   InitialCond=Zero   DesTypeOpt="Prog Det"   DesignType=Dead   DesActOpt="Prog Det"   DesignAct=Non-Composite   AutoType=None   RunCase=Yes   GUID=190add3e-41fc-44d8-9816-5b663ea6cb1b
   Case=MODAL   Type=LinModal   InitialCond=Zero   DesTypeOpt="Prog Det"   DesignType=Other   DesActOpt="Prog Det"   DesignAct=Other   AutoType=None   RunCase=Yes   GUID=dce90f7c-328b-40e4-a87a-2ea574d05d5c
 
TABLE:  "LOAD PATTERN DEFINITIONS"
   LoadPat=DEAD   DesignType=Dead   SelfWtMult=1   GUID=aafb5dd6-1c7d-4888-b854-41c1afbbd778
 
TABLE:  "MASS SOURCE"
   MassSource=MSSSRC1   Elements=Yes   Masses=Yes   Loads=No   IsDefault=Yes
 
TABLE:  "MATERIAL PROPERTIES 01 - GENERAL"
   Material=4000Psi   Type=Concrete   Grade="f'c 4000 psi"   SymType=Isotropic   TempDepend=No   Color=Gray8Dark   GUID=7932c74c-6ec5-483e-8d76-df6409af0a4a   Notes="Customary f'c 4000 psi 02.12.2025 10:45:48"
   Material=A615Gr60   Type=Rebar   Grade="Grade 60"   SymType=Uniaxial   TempDepend=No   Color=Blue   GUID=a8004fd9-97d4-4656-b09b-e8b054f3b201   Notes="ASTM A615 Grade 60 02.12.2025 10:45:48"
   Material=A992Fy50   Type=Steel   Grade="Grade 50"   SymType=Isotropic   TempDepend=No   Color=Yellow   GUID=a31e366a-bce6-4a0c-ba53-491ae50c5a92   Notes="ASTM A992 Grade 50 02.12.2025 10:45:48"
 
TABLE:  "MATERIAL PROPERTIES 02 - BASIC MECHANICAL PROPERTIES"
   Material=4000Psi   UnitWeight=23,563121616185445   UnitMass=2,402769605589257   E1=24855578,06005177   G12=10356490,858354904   U12=0,2   A1=9,899999527931235E-06
   Material=A615Gr60   UnitWeight=76,97286394226482   UnitMass=7,849047379959921   E1=199947978,79595757   A1=1,1699999442100551E-05
   Material=A992Fy50   UnitWeight=76,97286394226482   UnitMass=7,849047379959921   E1=199947978,79595757   G12=76903068,76767598   U12=0,3   A1=1,1699999442100551E-05
 
TABLE:  "MATERIAL PROPERTIES 03A - STEEL DATA"
   Material=A992Fy50   Fy=344737,8944757889   Fu=448159,2628185256   EffFy=379211,6839233678   EffFu=492975,1891003782   SSCurveOpt=Simple   SSHysType=Kinematic   SHard=0,015   SMax=0,11   SRup=0,17   FinalSlope=-0,1   CoupModType="Von Mises"
 
TABLE:  "MATERIAL PROPERTIES 03B - CONCRETE DATA"
   Material=4000Psi   Fc=27579,031558063114   eFc=27579,031558063114   LtWtConc=No   SSCurveOpt=Mander   SSHysType=Takeda   SFc=0,00221914   SCap=0,005   FinalSlope=-0,1   FAngle=0   DAngle=0   CoupModType="Modified Darwin-Pecknold"
 
TABLE:  "MATERIAL PROPERTIES 03E - REBAR DATA"
   Material=A615Gr60   Fy=413685,4733709467   Fu=620528,2100564201   EffFy=455054,0207080414   EffFu=682581,0310620621   SSCurveOpt=Simple   SSHysType=Kinematic   SHard=0,01   SCap=0,09   FinalSlope=-0,1   UseCTDef=No   CoupModType="Von Mises"
 
TABLE:  "MATERIAL PROPERTIES 03J - COUPLED NONLINEAR VON MISES DATA"
   Material=A615Gr60   YieldStress=455054,0207080414   LinIsoHard=No   LinKinHard=No   NLIsoSaHard=No
   Material=A992Fy50   YieldStress=379211,6839233678   LinIsoHard=No   LinKinHard=No   NLIsoSaHard=No
 
TABLE:  "MATERIAL PROPERTIES 06 - DAMPING PARAMETERS"
   Material=4000Psi   ModalRatio=0   VisMass=0   VisStiff=0   HysMass=0   HysStiff=0
   Material=A615Gr60   ModalRatio=0   VisMass=0   VisStiff=0   HysMass=0   HysStiff=0
   Material=A992Fy50   ModalRatio=0   VisMass=0   VisStiff=0   HysMass=0   HysStiff=0
 
TABLE:  "MATERIAL PROPERTIES 09 - ACCEPTANCE CRITERIA"
   Material=4000Psi   IOTens=0,01   LSTens=0,02   CPTens=0,05   IOComp=-0,003   LSComp=-0,006   CPComp=-0,015   IgnoreTens=Yes
   Material=A615Gr60   IOTens=0,01   LSTens=0,02   CPTens=0,05   IOComp=-0,005   LSComp=-0,01   CPComp=-0,02
   Material=A992Fy50   IOTens=0,01   LSTens=0,02   CPTens=0,05   IOComp=-0,005   LSComp=-0,01   CPComp=-0,02
 
TABLE:  "OPTIONS - COLORS - DISPLAY"
   DeviceType=Screen   Points=Blue   LinesFrame=Blue   LinesFrmDL=Blue   LinesCable=Green   LinesTendon=Green   SpringLinks=Green   Restraints=Green   Releases=Green   Axes=Cyan   Text=Black   ShadowLines=Gray8Dark   GuideLines=Gray8Dark _
        Highlight=Red   Selection=10504778   AreaFillBot=Red   AreaFillTop=16744703   AreaFillSd=Red   AreaEdge=DarkRed   SolidF1=Red   SolidF2=Blue   SolidF3=Green   SolidF4=Yellow   SolidF5=White   SolidF6=Cyan   SolidEdge=DarkRed _
        Floor=Gray4   Background=White   BGLowLeft=White   BGLowRight=White   BGUpRight=White   Darkness=0
   DeviceType=Printer   Points=Gray8Dark   LinesFrame=Black   LinesFrmDL=Gray4   LinesCable=Black   LinesTendon=Black   SpringLinks=Gray8Dark   Restraints=Gray8Dark   Releases=Gray4   Axes=Black   Text=Black   ShadowLines=Gray4 _
        GuideLines=Gray4   Highlight=Black   Selection=Black   AreaFillBot=Gray4   AreaFillTop=Gray8Dark   AreaFillSd=Gray4   AreaEdge=Black   SolidF1=Gray1Light   SolidF2=Gray2   SolidF3=Gray3   SolidF4=Gray4   SolidF5=Gray5 _
        SolidF6=Gray6   SolidEdge=Black   Floor=Gray4   Background=White   BGLowLeft=White   BGLowRight=White   BGUpRight=White   Darkness=0,5
   DeviceType="Color Printer"   Points=Blue   LinesFrame=Blue   LinesFrmDL=Blue   LinesCable=Green   LinesTendon=Green   SpringLinks=Green   Restraints=Green   Releases=Green   Axes=Cyan   Text=Black   ShadowLines=Gray8Dark _
        GuideLines=Gray8Dark   Highlight=Red   Selection=10504778   AreaFillBot=Red   AreaFillTop=16744703   AreaFillSd=Red   AreaEdge=DarkRed   SolidF1=Red   SolidF2=Blue   SolidF3=Green   SolidF4=Yellow   SolidF5=White   SolidF6=Cyan _
        SolidEdge=DarkRed   Floor=Gray4   Background=White   BGLowLeft=White   BGLowRight=White   BGUpRight=White   Darkness=0,5
 
TABLE:  "OPTIONS - COLORS - OUTPUT"
   DeviceType=Screen   Contour1=13107400   Contour2=6553828   Contour3=Red   Contour4=16639   Contour5=Orange   Contour6=43775   Contour7=54527   Contour8=Yellow   Contour9=65408   Contour10=Green   Contour11=8453888   Contour12=Cyan _
        Contour13=16755200   Contour14=16733440   Contour15=Blue   Transpare=0   Ratio1=Cyan   Ratio2=Green   Ratio3=Yellow   Ratio4=Orange   Ratio5=Red   RatioNotD=Gray4   RatioNotC=Red   RatioVal1=0,5   RatioVal2=0,7   RatioVal3=0,9 _
        RatioVal4=1   DFillPos=Blue   DFillNeg=Red   DFillRPos=9498256   DFillRNeg=9498256
   DeviceType=Printer   Contour1=Black   Contour2=3158064   Contour3=4210752   Contour4=5263440   Contour5=6316128   Contour6=7368816   Contour7=Gray8Dark   Contour8=Gray7   Contour9=Gray6   Contour10=Gray5   Contour11=Gray4 _
        Contour12=Gray3   Contour13=Gray2   Contour14=Gray1Light   Contour15=White   Transpare=0   Ratio1=Gray2   Ratio2=Gray4   Ratio3=Gray8Dark   Ratio4=4210752   Ratio5=Black   RatioNotD=Gray4   RatioNotC=Black   RatioVal1=0,5 _
        RatioVal2=0,7   RatioVal3=0,9   RatioVal4=1   DFillPos=Gray8Dark   DFillNeg=Gray8Dark   DFillRPos=4210752   DFillRNeg=4210752
   DeviceType="Color Printer"   Contour1=13107400   Contour2=6553828   Contour3=Red   Contour4=16639   Contour5=Orange   Contour6=43775   Contour7=54527   Contour8=Yellow   Contour9=65408   Contour10=Green   Contour11=8453888 _
        Contour12=Cyan   Contour13=16755200   Contour14=16733440   Contour15=Blue   Transpare=0   Ratio1=Cyan   Ratio2=Green   Ratio3=Yellow   Ratio4=Orange   Ratio5=Red   RatioNotD=Gray4   RatioNotC=Red   RatioVal1=0,5   RatioVal2=0,7 _
        RatioVal3=0,9   RatioVal4=1   DFillPos=Blue   DFillNeg=Red   DFillRPos=9498256   DFillRNeg=9498256
 
TABLE:  "PREFERENCES - ALUMINUM DESIGN - AA 2015"
   THDesign=Envelopes   SRatioLimit=1   Provision=LRFD   LatFact=1,3333333333333333   UseLatFact=No   Bridge=No   AMethod="Direct Analysis"   SOMethod="General 2nd Order"   SRMethod="Tau-b Fixed"   PhiTy=0,9   PhiTr=0,75   PhiC=0,9 _
        PhiBo=0,9   PhiBr=0,75   PhiVo=0,9   PhiVr=0,75
 
TABLE:  "PREFERENCES - COLD FORMED DESIGN - AISI-16"
   THDesign=Envelopes   FrameType="Braced Frame"   SRatioLimit=1   SOMethod="General 2nd Order"   Provision=LRFD   LatFact=1,3333333333333333   UseLatFact=No   PhiTy=0,9   PhiTr=0,75   PhiC=0,85   PhiB=0,9   PhiBPipe=0,95   PhiV=0,95
 
TABLE:  "PREFERENCES - CONCRETE DESIGN - ACI 318-19"
   THDesign=Envelopes   NumCurves=24   NumPoints=11   MinEccen=Yes   BCCDesign=Yes   IgnoreBPu=Yes   CTorsion=Yes   PatLLF=0,75   UFLimit=0,95   SeisCat=D   Rho=1   Sds=0,5   PhiT=0,9   PhiCTied=0,65   PhiCSpiral=0,75   PhiV=0,75 _
        PhiVSeismic=0,6   PhiVJoint=0,85   TanTheta=1
 
TABLE:  "PREFERENCES - CONCRETE SHELL DESIGN - EUROCODE 2-2004"
   Country="CEN Default"   GammaS=1,15   GammaC=1,5   AlphaCC=1   AlphaCT=1   CrackCond="Program Determined"   ShrDesMet="Method 1"   CotTheta=1   AddTenForce=Yes
 
TABLE:  "PREFERENCES - DIMENSIONAL"
   MergeTol=0,001   FineGrid=0,25   Nudge=0,25   SelectTol=3   SnapTol=12   SLineThick=1   PLineThick=4   MaxFont=12   MinFont=6   AutoZoom=10   ShrinkFact=70   TextFileLen=240
 
TABLE:  "PREFERENCES - STEEL DESIGN - AISC 360-16"
   THDesign=Envelopes   FrameType=SMF   PatLLF=0,75   SRatioLimit=0,95   MaxIter=1   SDC=D   SeisCode=No   SeisLoad=No   ImpFactor=1   SystemRho=1   SystemSds=0,5   SystemR=8   SystemCd=5,5   Omega0=3   Provision=LRFD _
        AMethod="Direct Analysis"   SOMethod="General 2nd Order"   SRMethod="Tau-b Fixed"   NLCoeff=0,002   PhiB=0,9   PhiC=0,9   PhiTY=0,9   PhiTF=0,75   PhiV=0,9   PhiVRolledI=1   PhiVT=0,9   PlugWeld=Yes   HSSWelding=ERW   HSSReduceT=No _
        CheckDefl=No   DLRat=120   SDLAndLLRat=120   LLRat=360   TotalRat=240   NetRat=240
 
TABLE:  "PROGRAM CONTROL"
   ProgramName=SAP2000   Version=26.3.0   CurrUnits="KN, m, C"   SteelCode="AISC 360-16"   ConcCode="ACI 318-19"   AlumCode="AA 2015"   ColdCode=AISI-16   ConcSCode="Eurocode 2-2004"   RegenHinge=Yes
 
TABLE:  "PROJECT INFORMATION"
   Item="Company Name"
   Item="Client Name"
   Item="Project Name"
   Item="Project Number"
   Item="Model Name"
   Item="Model Description"
   Item="Revision Number"
   Item="Frame Type"
   Item=Engineer
   Item=Checker
   Item=Supervisor
   Item="Issue Code"
   Item="Design Code"
 
TABLE:  "REBAR SIZES"
   RebarID=#2   Area=3,2258E-05   Diameter=0,00635
   RebarID=#3   Area=7,096759961545467E-05   Diameter=0,009524999999999999
   RebarID=#4   Area=0,00012903200192272663   Diameter=0,0127
   RebarID=#5   Area=0,0001999996015381813   Diameter=0,015875
   RebarID=#6   Area=0,0002838703984618187   Diameter=0,019049999999999997
   RebarID=#7   Area=0,00038709601538181303   Diameter=0,022224999999999998
   RebarID=#8   Area=0,0005096764138436317   Diameter=0,0254
   RebarID=#9   Area=0,00064516   Diameter=0,02865120053291321
   RebarID=#10   Area=0,0008193531876945496   Diameter=0,032257999515533445
   RebarID=#11   Area=0,0010064495630836487   Diameter=0,03581399915218353
   RebarID=#14   Area=0,0014516099999999999   Diameter=0,04300219895839691
   RebarID=#18   Area=0,00258064   Diameter=0,057327799224853516
   RebarID=10M   Area=0,00010000000265538693   Diameter=0,011300000667572021
   RebarID=15M   Area=0,00020000000531077386   Diameter=0,015999999940395356
   RebarID=20M   Area=0,00030000001757979393   Diameter=0,01949999978542328
   RebarID=25M   Area=0,0005000000228905678   Diameter=0,02520000160932541
   RebarID=30M   Area=0,0007000000089740753   Diameter=0,029900000882148742
   RebarID=35M   Area=0,0010000000457811356   Diameter=0,03570000114440918
   RebarID=45M   Area=0,0015000001071262359   Diameter=0,04370000035762787
   RebarID=55M   Area=0,0025000000759983062   Diameter=0,05640000338554382
   RebarID=6d   Area=2,8300000414997338E-05   Diameter=0,006000000166893005
   RebarID=8d   Area=5,0299999557137487E-05   Diameter=0,007999999970197678
   RebarID=10d   Area=7,850000136345625E-05   Diameter=0,00999999977350235
   RebarID=12d   Area=0,00011300000924944878   Diameter=0,01200000033378601
   RebarID=14d   Area=0,00015400001081883907   Diameter=0,014000000894069671
   RebarID=16d   Area=0,00020100001543164252   Diameter=0,015999999940395356
   RebarID=20d   Area=0,000314000005453825   Diameter=0,0199999995470047
   RebarID=25d   Area=0,0004910000087118149   Diameter=0,025000000190734863
   RebarID=26d   Area=0,000531000029001236   Diameter=0,025999999713897704
   RebarID=28d   Area=0,0006160000432753563   Diameter=0,028000001788139342
   RebarID=N12   Area=0,00011300000924944878   Diameter=0,01200000033378601
   RebarID=N16   Area=0,00020100001543164252   Diameter=0,015999999940395356
   RebarID=N20   Area=0,000314000005453825   Diameter=0,0199999995470047
   RebarID=N24   Area=0,0004520000369977951   Diameter=0,02400000066757202
   RebarID=N28   Area=0,0006160000432753563   Diameter=0,028000001788139342
   RebarID=N32   Area=0,0008040000617265701   Diameter=0,03199999988079071
   RebarID=N36   Area=0,0010200000174713135   Diameter=0,03600000100135803
 
END TABLE DATA
