File D:\MyProjects\model (17).$2k was saved on m/d/yy at h:mm:ss
 
TABLE:  "ACTIVE DEGREES OF FREEDOM"
   UX=Yes   UY=Yes   UZ=Yes   RX=Yes   RY=Yes   RZ=Yes
 
TABLE:  "ANALYSIS OPTIONS"
   Solver=Advanced   SolverProc=Auto   Force32Bit=No   StiffCase=None   GeomMod=None   HingeOpt="In Elements"   NumAThreads=0   MaxFileSize=0   NumDThreads=0   NumRThreads=0   UseMMFiles="Program Determined"   AllowDiff=No
 
TABLE:  "AREA DESIGN PROCEDURES"
   Area=1   DesignProc="Concrete Shell Design"
   Area=2   DesignProc="Concrete Shell Design"
   Area=3   DesignProc="Concrete Shell Design"
   Area=4   DesignProc="Concrete Shell Design"
   Area=5   DesignProc="Concrete Shell Design"
   Area=6   DesignProc="Concrete Shell Design"
   Area=7   DesignProc="Concrete Shell Design"
   Area=8   DesignProc="Concrete Shell Design"
   Area=9   DesignProc="Concrete Shell Design"
   Area=10   DesignProc="Concrete Shell Design"
   Area=11   DesignProc="Concrete Shell Design"
   Area=12   DesignProc="Concrete Shell Design"
 
TABLE:  "AREA LOADS - UNIFORM"
   Area=1   LoadPat=SDEAD   CoordSys=GLOBAL   Dir=Gravity   UnifLoad=2
   Area=2   LoadPat=SDEAD   CoordSys=GLOBAL   Dir=Gravity   UnifLoad=2
   Area=3   LoadPat=SDEAD   CoordSys=GLOBAL   Dir=Gravity   UnifLoad=2
   Area=4   LoadPat=SDEAD   CoordSys=GLOBAL   Dir=Gravity   UnifLoad=2
   Area=5   LoadPat=SDEAD   CoordSys=GLOBAL   Dir=Gravity   UnifLoad=2
   Area=6   LoadPat=SDEAD   CoordSys=GLOBAL   Dir=Gravity   UnifLoad=2
   Area=7   LoadPat=SDEAD   CoordSys=GLOBAL   Dir=Gravity   UnifLoad=2
   Area=8   LoadPat=SDEAD   CoordSys=GLOBAL   Dir=Gravity   UnifLoad=2
   Area=9   LoadPat=SDEAD   CoordSys=GLOBAL   Dir=Gravity   UnifLoad=2
   Area=10   LoadPat=SDEAD   CoordSys=GLOBAL   Dir=Gravity   UnifLoad=2
   Area=11   LoadPat=SDEAD   CoordSys=GLOBAL   Dir=Gravity   UnifLoad=2
   Area=12   LoadPat=SDEAD   CoordSys=GLOBAL   Dir=Gravity   UnifLoad=2
 
TABLE:  "AREA SECTION ASSIGNMENTS"
   Area=1   Section=SHELL_0.25   MatProp=Default
   Area=2   Section=SHELL_0.25   MatProp=Default
   Area=3   Section=SHELL_0.25   MatProp=Default
   Area=4   Section=SHELL_0.25   MatProp=Default
   Area=5   Section=SHELL_0.25   MatProp=Default
   Area=6   Section=SHELL_0.25   MatProp=Default
   Area=7   Section=SHELL_0.25   MatProp=Default
   Area=8   Section=SHELL_0.25   MatProp=Default
   Area=9   Section=SHELL_0.25   MatProp=Default
   Area=10   Section=SHELL_0.25   MatProp=Default
   Area=11   Section=SHELL_0.25   MatProp=Default
   Area=12   Section=SHELL_0.25   MatProp=Default
 
TABLE:  "AREA SECTION PROPERTIES"
   Section=SHELL_0.25   Material=MAT1   MatAngle=0   AreaType=Shell   Type=Shell-Thin   DrillDOF=Yes   Thickness=0,25   BendThick=0,25   Color=Red   F11Mod=1   F22Mod=1   F12Mod=1   M11Mod=1   M22Mod=1   M12Mod=1   V13Mod=1   V23Mod=1 _
        MMod=1   WMod=1   GUID=f07ac24f-27f4-4fff-9050-5aeaa0ba46a9
 
TABLE:  "AREA SECTION PROPERTY DESIGN PARAMETERS"
   Section=SHELL_0.25   RebarMat=None   RebarOpt=Default
 
TABLE:  "AREA SECTION PROPERTY - TIME DEPENDENT"
   Section=SHELL_0.25   TypeSize=Auto   AutoSFSize=1
 
TABLE:  "AUTO WAVE 3 - WAVE CHARACTERISTICS - GENERAL"
   WaveChar=Default   WaveType="From Theory"   KinFactor=1   SWaterDepth=45   WaveHeight=18   WavePeriod=12   WaveTheory=Linear
 
TABLE:  "CONNECTIVITY - AREA"
   Area=1   Joint1=2   Joint2=11   Joint3=35   Joint4=5
   Area=2   Joint1=11   Joint2=19   Joint3=36   Joint4=35
   Area=3   Joint1=19   Joint2=27   Joint3=30   Joint4=36
   Area=4   Joint1=36   Joint2=30   Joint3=33   Joint4=24
   Area=5   Joint1=35   Joint2=36   Joint3=24   Joint4=16
   Area=6   Joint1=5   Joint2=35   Joint3=16   Joint4=8
   Area=7   Joint1=3   Joint2=12   Joint3=14   Joint4=6
   Area=8   Joint1=12   Joint2=20   Joint3=22   Joint4=14
   Area=9   Joint1=20   Joint2=28   Joint3=31   Joint4=22
   Area=10   Joint1=22   Joint2=31   Joint3=34   Joint4=25
   Area=11   Joint1=14   Joint2=22   Joint3=25   Joint4=17
   Area=12   Joint1=6   Joint2=14   Joint3=17   Joint4=9
 
TABLE:  "CONNECTIVITY - FRAME"
   Frame=1   JointI=3   JointJ=12   IsCurved=No   GUID=b03f3e29-033d-4dde-ac9f-574628d367f8
   Frame=2   JointI=12   JointJ=20   IsCurved=No   GUID=4cd6edb9-9d4b-4146-bf55-40124b3ea4c1
   Frame=3   JointI=20   JointJ=28   IsCurved=No   GUID=a6b7217f-d60b-40a8-8392-002c560f30c2
   Frame=4   JointI=6   JointJ=14   IsCurved=No   GUID=38cadaaa-f0e3-4245-8f77-fc7f7b484594
   Frame=5   JointI=14   JointJ=22   IsCurved=No   GUID=e66a1b63-b171-4211-9a9b-da865d27f7bf
   Frame=6   JointI=22   JointJ=31   IsCurved=No   GUID=f972ae9d-9059-4049-9939-74a5ddb10afa
   Frame=7   JointI=9   JointJ=17   IsCurved=No   GUID=3dc7f30e-d073-4e59-9c55-af4fa3680251
   Frame=8   JointI=17   JointJ=25   IsCurved=No   GUID=b6b5d85a-e6f2-4781-bf02-1cdb88716f47
   Frame=9   JointI=25   JointJ=34   IsCurved=No   GUID=61c8034a-dbaf-4f23-ae9b-52c9e2415206
   Frame=10   JointI=3   JointJ=6   IsCurved=No   GUID=f8871de9-318c-419d-a5a1-552132604a5a
   Frame=11   JointI=6   JointJ=9   IsCurved=No   GUID=e2af68f2-6523-4103-ae6e-6bf83d14bd70
   Frame=12   JointI=12   JointJ=14   IsCurved=No   GUID=2252e1f2-e763-40e9-a35f-c236ee1ab5a6
   Frame=13   JointI=14   JointJ=17   IsCurved=No   GUID=9d206f37-380e-451a-a946-3f353b5a4e51
   Frame=14   JointI=20   JointJ=22   IsCurved=No   GUID=c7c5da2f-e6f9-4aab-9e78-b4ba6fe807e1
   Frame=15   JointI=22   JointJ=25   IsCurved=No   GUID=7f403986-bcdc-4050-90f6-18eb79a62d73
   Frame=16   JointI=28   JointJ=31   IsCurved=No   GUID=28a24aea-a84b-40f9-8619-228f63cbc465
   Frame=17   JointI=31   JointJ=34   IsCurved=No   GUID=4e0c25c8-19ed-4664-8d39-f7c449c27ed8
   Frame=18   JointI=2   JointJ=11   IsCurved=No   GUID=3dedd659-87bc-4109-9828-e0514975cc2e
   Frame=19   JointI=11   JointJ=19   IsCurved=No   GUID=4aee88f6-192e-48bc-837f-cd16d265724b
   Frame=20   JointI=19   JointJ=27   IsCurved=No   GUID=77575ab5-db89-4ba1-a956-879c4a08ef4f
   Frame=21   JointI=5   JointJ=35   IsCurved=No   GUID=6395ddd5-6a90-47a4-9f95-523d0d15779e
   Frame=22   JointI=35   JointJ=36   IsCurved=No   GUID=b3ff6899-9322-4dda-ba5f-aa3e49a699ec
   Frame=23   JointI=36   JointJ=30   IsCurved=No   GUID=9359a037-edf1-4b5c-afd4-5e6c23b6ed9b
   Frame=24   JointI=8   JointJ=16   IsCurved=No   GUID=e6268261-2d11-4f4b-945e-96ccedaf2316
   Frame=25   JointI=16   JointJ=24   IsCurved=No   GUID=b5ac35c6-e540-4efd-9d06-a73786ed7e99
   Frame=26   JointI=24   JointJ=33   IsCurved=No   GUID=441f6bce-bdb2-4093-ae0c-0d3cc3a71b5d
   Frame=27   JointI=2   JointJ=5   IsCurved=No   GUID=4735d8f1-19f3-4dab-8744-add2f28a8c20
   Frame=28   JointI=5   JointJ=8   IsCurved=No   GUID=503dd5b5-febc-42d2-b94b-555a2a26eda6
   Frame=29   JointI=11   JointJ=35   IsCurved=No   GUID=ce1ea653-9815-416d-a41d-425f0615f6fd
   Frame=30   JointI=35   JointJ=16   IsCurved=No   GUID=04d2930e-42f9-4fa3-912c-7b382a367a99
   Frame=31   JointI=19   JointJ=36   IsCurved=No   GUID=96c7b0c7-fea2-4b25-a089-f057191d9548
   Frame=32   JointI=36   JointJ=24   IsCurved=No   GUID=69fd6bfd-2772-4f56-adbc-df929ba2c181
   Frame=33   JointI=27   JointJ=30   IsCurved=No   GUID=a2359262-b700-4b13-81e6-69b9a574165a
   Frame=34   JointI=30   JointJ=33   IsCurved=No   GUID=d453513b-d66a-4cdc-a511-4c563d82a86c
   Frame=35   JointI=1   JointJ=2   IsCurved=No   GUID=6c94cd1c-c728-44fa-b781-262d5e8427d9
   Frame=36   JointI=2   JointJ=3   IsCurved=No   GUID=82ca6254-6723-4819-9c79-cf1242cb8981
   Frame=37   JointI=4   JointJ=5   IsCurved=No   GUID=a6a5a9a8-e3b0-4fd3-b620-5992558ae4b5
   Frame=38   JointI=5   JointJ=6   IsCurved=No   GUID=c6ddcb97-771c-4c77-8810-28c41af58461
   Frame=39   JointI=7   JointJ=8   IsCurved=No   GUID=0157c2fa-d1c1-43a8-a32e-81b76995cad6
   Frame=40   JointI=8   JointJ=9   IsCurved=No   GUID=1dc343cf-d8d4-4144-9484-3d5a0345dd6d
   Frame=41   JointI=10   JointJ=11   IsCurved=No   GUID=e098538d-cda6-4756-8c7c-a1d111d2af3d
   Frame=42   JointI=11   JointJ=12   IsCurved=No   GUID=309ab38e-d4e4-4d24-88b0-b44576b2f03f
   Frame=43   JointI=13   JointJ=35   IsCurved=No   GUID=a9ae3594-ddaf-4c0d-8c85-1394b9b665db
   Frame=44   JointI=35   JointJ=14   IsCurved=No   GUID=8dd765a6-668a-4bf8-9f54-7ff61166095e
   Frame=45   JointI=15   JointJ=16   IsCurved=No   GUID=03853e9c-1e03-477f-b681-c8272a56f6f6
   Frame=46   JointI=16   JointJ=17   IsCurved=No   GUID=e5501f2d-bddd-4d36-8634-5b45ff1e04b4
   Frame=47   JointI=18   JointJ=19   IsCurved=No   GUID=ce1df103-8167-4b14-a01d-a829a12caaa6
   Frame=48   JointI=19   JointJ=20   IsCurved=No   GUID=5255fcf1-0c5f-4d71-a5bb-a07f7655fb9b
   Frame=49   JointI=21   JointJ=36   IsCurved=No   GUID=8698d549-eaa9-4c9d-b123-bccaf0c0a9c1
   Frame=50   JointI=36   JointJ=22   IsCurved=No   GUID=e9778138-54c7-4a84-9f19-2df734499afe
   Frame=51   JointI=23   JointJ=24   IsCurved=No   GUID=0edf00f1-333f-4399-9432-808ea07ee204
   Frame=52   JointI=24   JointJ=25   IsCurved=No   GUID=9c5318b2-29e3-4e24-9113-7541786fe80e
   Frame=53   JointI=26   JointJ=27   IsCurved=No   GUID=f75beb32-c18d-4cd6-97b0-b45411016de4
   Frame=54   JointI=27   JointJ=28   IsCurved=No   GUID=df43795f-748e-4a48-953e-c8db845281ec
   Frame=55   JointI=29   JointJ=30   IsCurved=No   GUID=b670646c-458c-4cbf-b708-a1338271a0e2
   Frame=56   JointI=30   JointJ=31   IsCurved=No   GUID=f98a5a59-a517-4796-a485-34e0528f5f07
   Frame=57   JointI=32   JointJ=33   IsCurved=No   GUID=94c5ccb1-1041-4d5c-9204-6502bbdb540b
   Frame=58   JointI=33   JointJ=34   IsCurved=No   GUID=ee3eea28-21a4-4c96-8b1d-d111ae4f33d9
 
TABLE:  "COORDINATE SYSTEMS"
   Name=GLOBAL   Type=Cartesian   X=0   Y=0   Z=0   AboutZ=0   AboutY=0   AboutX=0
 
TABLE:  "DATABASE DOCUMENTATION"
 
TABLE:  "DATABASE FORMAT TYPES"
   UnitsCurr=Yes   OverrideE=No
 
TABLE:  "FRAME AUTO MESH ASSIGNMENTS"
   Frame=1   AutoMesh=Yes   AtJoints=Yes   AtFrames=No   NumSegments=0   MaxLength=0   MaxDegrees=0
   Frame=2   AutoMesh=Yes   AtJoints=Yes   AtFrames=No   NumSegments=0   MaxLength=0   MaxDegrees=0
   Frame=3   AutoMesh=Yes   AtJoints=Yes   AtFrames=No   NumSegments=0   MaxLength=0   MaxDegrees=0
   Frame=4   AutoMesh=Yes   AtJoints=Yes   AtFrames=No   NumSegments=0   MaxLength=0   MaxDegrees=0
   Frame=5   AutoMesh=Yes   AtJoints=Yes   AtFrames=No   NumSegments=0   MaxLength=0   MaxDegrees=0
   Frame=6   AutoMesh=Yes   AtJoints=Yes   AtFrames=No   NumSegments=0   MaxLength=0   MaxDegrees=0
   Frame=7   AutoMesh=Yes   AtJoints=Yes   AtFrames=No   NumSegments=0   MaxLength=0   MaxDegrees=0
   Frame=8   AutoMesh=Yes   AtJoints=Yes   AtFrames=No   NumSegments=0   MaxLength=0   MaxDegrees=0
   Frame=9   AutoMesh=Yes   AtJoints=Yes   AtFrames=No   NumSegments=0   MaxLength=0   MaxDegrees=0
   Frame=10   AutoMesh=Yes   AtJoints=Yes   AtFrames=No   NumSegments=0   MaxLength=0   MaxDegrees=0
   Frame=11   AutoMesh=Yes   AtJoints=Yes   AtFrames=No   NumSegments=0   MaxLength=0   MaxDegrees=0
   Frame=12   AutoMesh=Yes   AtJoints=Yes   AtFrames=No   NumSegments=0   MaxLength=0   MaxDegrees=0
   Frame=13   AutoMesh=Yes   AtJoints=Yes   AtFrames=No   NumSegments=0   MaxLength=0   MaxDegrees=0
   Frame=14   AutoMesh=Yes   AtJoints=Yes   AtFrames=No   NumSegments=0   MaxLength=0   MaxDegrees=0
   Frame=15   AutoMesh=Yes   AtJoints=Yes   AtFrames=No   NumSegments=0   MaxLength=0   MaxDegrees=0
   Frame=16   AutoMesh=Yes   AtJoints=Yes   AtFrames=No   NumSegments=0   MaxLength=0   MaxDegrees=0
   Frame=17   AutoMesh=Yes   AtJoints=Yes   AtFrames=No   NumSegments=0   MaxLength=0   MaxDegrees=0
   Frame=18   AutoMesh=Yes   AtJoints=Yes   AtFrames=No   NumSegments=0   MaxLength=0   MaxDegrees=0
   Frame=19   AutoMesh=Yes   AtJoints=Yes   AtFrames=No   NumSegments=0   MaxLength=0   MaxDegrees=0
   Frame=20   AutoMesh=Yes   AtJoints=Yes   AtFrames=No   NumSegments=0   MaxLength=0   MaxDegrees=0
# ... 38 like lines cut
 
TABLE:  "FRAME DESIGN PROCEDURES"
   Frame=1   DesignProc="No Design"
   Frame=2   DesignProc="No Design"
   Frame=3   DesignProc="No Design"
   Frame=4   DesignProc="No Design"
   Frame=5   DesignProc="No Design"
   Frame=6   DesignProc="No Design"
   Frame=7   DesignProc="No Design"
   Frame=8   DesignProc="No Design"
   Frame=9   DesignProc="No Design"
   Frame=10   DesignProc="No Design"
   Frame=11   DesignProc="No Design"
   Frame=12   DesignProc="No Design"
   Frame=13   DesignProc="No Design"
   Frame=14   DesignProc="No Design"
   Frame=15   DesignProc="No Design"
   Frame=16   DesignProc="No Design"
   Frame=17   DesignProc="No Design"
   Frame=18   DesignProc="No Design"
   Frame=19   DesignProc="No Design"
   Frame=20   DesignProc="No Design"
# ... 38 like lines cut
 
TABLE:  "FRAME LOADS - DISTRIBUTED"
   Frame=1   LoadPat=P   CoordSys=GLOBAL   Type=Force   Dir=Gravity   DistType=RelDist   RelDistA=0   RelDistB=1   AbsDistA=0   AbsDistB=6   FOverLA=-1,019716213   FOverLB=-1,019716213   GUID=159ad51f-eaec-41b5-8718-21a4b9de9a00
   Frame=1   LoadPat=static   CoordSys=GLOBAL   Type=Force   Dir=Gravity   DistType=RelDist   RelDistA=0   RelDistB=1   AbsDistA=0   AbsDistB=6   FOverLA=5   FOverLB=5   GUID=701b485d-95c6-47c1-a381-df88666adc5c
   Frame=2   LoadPat=P   CoordSys=GLOBAL   Type=Force   Dir=Gravity   DistType=RelDist   RelDistA=0   RelDistB=1   AbsDistA=0   AbsDistB=6   FOverLA=-1,019716213   FOverLB=-1,019716213   GUID=28f4a80e-3935-4376-a2bd-f03eb93bcb67
   Frame=2   LoadPat=static   CoordSys=GLOBAL   Type=Force   Dir=Gravity   DistType=RelDist   RelDistA=0   RelDistB=1   AbsDistA=0   AbsDistB=6   FOverLA=5   FOverLB=5   GUID=71a91380-19a2-4887-b74a-5d183be8fe30
   Frame=3   LoadPat=P   CoordSys=GLOBAL   Type=Force   Dir=Gravity   DistType=RelDist   RelDistA=0   RelDistB=1   AbsDistA=0   AbsDistB=6   FOverLA=-1,019716213   FOverLB=-1,019716213   GUID=e24613da-0e89-47ef-91fa-4f070af4006b
   Frame=3   LoadPat=static   CoordSys=GLOBAL   Type=Force   Dir=Gravity   DistType=RelDist   RelDistA=0   RelDistB=1   AbsDistA=0   AbsDistB=6   FOverLA=5   FOverLB=5   GUID=170bea1a-e80f-4841-91e8-fc5588a26171
   Frame=4   LoadPat=P   CoordSys=GLOBAL   Type=Force   Dir=Gravity   DistType=RelDist   RelDistA=0   RelDistB=1   AbsDistA=0   AbsDistB=6   FOverLA=-1,019716213   FOverLB=-1,019716213   GUID=10aedc94-8a8a-474d-98b1-9e2d2a92bb3c
   Frame=4   LoadPat=static   CoordSys=GLOBAL   Type=Force   Dir=Gravity   DistType=RelDist   RelDistA=0   RelDistB=1   AbsDistA=0   AbsDistB=6   FOverLA=5   FOverLB=5   GUID=83584b64-7c69-40a9-946c-02f4f9466b7f
   Frame=5   LoadPat=P   CoordSys=GLOBAL   Type=Force   Dir=Gravity   DistType=RelDist   RelDistA=0   RelDistB=1   AbsDistA=0   AbsDistB=6   FOverLA=-1,019716213   FOverLB=-1,019716213   GUID=1d59b5fb-5ed0-45d2-9d8b-c26bf17b76be
   Frame=5   LoadPat=static   CoordSys=GLOBAL   Type=Force   Dir=Gravity   DistType=RelDist   RelDistA=0   RelDistB=1   AbsDistA=0   AbsDistB=6   FOverLA=5   FOverLB=5   GUID=471ef0b0-a977-4484-8e6f-3d6a3c7694f5
   Frame=6   LoadPat=P   CoordSys=GLOBAL   Type=Force   Dir=Gravity   DistType=RelDist   RelDistA=0   RelDistB=1   AbsDistA=0   AbsDistB=6   FOverLA=-1,019716213   FOverLB=-1,019716213   GUID=fefbc379-e39b-4875-ab9e-b3da2d16dab6
   Frame=6   LoadPat=static   CoordSys=GLOBAL   Type=Force   Dir=Gravity   DistType=RelDist   RelDistA=0   RelDistB=1   AbsDistA=0   AbsDistB=6   FOverLA=5   FOverLB=5   GUID=0213d59e-3926-4d3e-a2b8-896515beb100
   Frame=7   LoadPat=P   CoordSys=GLOBAL   Type=Force   Dir=Gravity   DistType=RelDist   RelDistA=0   RelDistB=1   AbsDistA=0   AbsDistB=6   FOverLA=-1,019716213   FOverLB=-1,019716213   GUID=b76c0970-f16d-4eaa-8a69-7761280ad415
   Frame=7   LoadPat=static   CoordSys=GLOBAL   Type=Force   Dir=Gravity   DistType=RelDist   RelDistA=0   RelDistB=1   AbsDistA=0   AbsDistB=6   FOverLA=5   FOverLB=5   GUID=e3a428da-edce-441d-9eb0-0295d1c78880
   Frame=8   LoadPat=P   CoordSys=GLOBAL   Type=Force   Dir=Gravity   DistType=RelDist   RelDistA=0   RelDistB=1   AbsDistA=0   AbsDistB=6   FOverLA=-1,019716213   FOverLB=-1,019716213   GUID=300de740-68d2-49bf-a211-5c89b591e227
   Frame=8   LoadPat=static   CoordSys=GLOBAL   Type=Force   Dir=Gravity   DistType=RelDist   RelDistA=0   RelDistB=1   AbsDistA=0   AbsDistB=6   FOverLA=5   FOverLB=5   GUID=cbdfcc8c-bbe2-4109-a766-24da2de5ae0e
   Frame=9   LoadPat=P   CoordSys=GLOBAL   Type=Force   Dir=Gravity   DistType=RelDist   RelDistA=0   RelDistB=1   AbsDistA=0   AbsDistB=6   FOverLA=-1,019716213   FOverLB=-1,019716213   GUID=1805ed83-2ea6-4078-be6e-5462c0aa9235
   Frame=9   LoadPat=static   CoordSys=GLOBAL   Type=Force   Dir=Gravity   DistType=RelDist   RelDistA=0   RelDistB=1   AbsDistA=0   AbsDistB=6   FOverLA=5   FOverLB=5   GUID=b62f64d4-f4d7-4a99-a5fb-35a545473602
   Frame=10   LoadPat=P   CoordSys=GLOBAL   Type=Force   Dir=Gravity   DistType=RelDist   RelDistA=0   RelDistB=1   AbsDistA=0   AbsDistB=6   FOverLA=-1,019716213   FOverLB=-1,019716213   GUID=5dec64ad-3294-4df7-85b7-5eadd781c326
   Frame=10   LoadPat=static   CoordSys=GLOBAL   Type=Force   Dir=Gravity   DistType=RelDist   RelDistA=0   RelDistB=1   AbsDistA=0   AbsDistB=6   FOverLA=5   FOverLB=5   GUID=ae6a1422-c21c-4463-aa82-c378fc2d67d4
   Frame=11   LoadPat=P   CoordSys=GLOBAL   Type=Force   Dir=Gravity   DistType=RelDist   RelDistA=0   RelDistB=1   AbsDistA=0   AbsDistB=6   FOverLA=-1,019716213   FOverLB=-1,019716213   GUID=bc19a876-5624-46ec-a862-439fce9255c1
   Frame=11   LoadPat=static   CoordSys=GLOBAL   Type=Force   Dir=Gravity   DistType=RelDist   RelDistA=0   RelDistB=1   AbsDistA=0   AbsDistB=6   FOverLA=5   FOverLB=5   GUID=49b8f16e-46e2-49a6-90f2-332acfcab70b
   Frame=12   LoadPat=P   CoordSys=GLOBAL   Type=Force   Dir=Gravity   DistType=RelDist   RelDistA=0   RelDistB=1   AbsDistA=0   AbsDistB=6   FOverLA=-1,019716213   FOverLB=-1,019716213   GUID=cd791a73-b4aa-4c2e-91ab-26200f3d2538
   Frame=12   LoadPat=static   CoordSys=GLOBAL   Type=Force   Dir=Gravity   DistType=RelDist   RelDistA=0   RelDistB=1   AbsDistA=0   AbsDistB=6   FOverLA=5   FOverLB=5   GUID=329af810-9841-4fe6-aa5a-84635373e67f
   Frame=13   LoadPat=P   CoordSys=GLOBAL   Type=Force   Dir=Gravity   DistType=RelDist   RelDistA=0   RelDistB=1   AbsDistA=0   AbsDistB=6   FOverLA=-1,019716213   FOverLB=-1,019716213   GUID=ed17e954-68cc-4156-8714-bfc6f1d4a510
   Frame=13   LoadPat=static   CoordSys=GLOBAL   Type=Force   Dir=Gravity   DistType=RelDist   RelDistA=0   RelDistB=1   AbsDistA=0   AbsDistB=6   FOverLA=5   FOverLB=5   GUID=50d7ff66-004f-4427-8bf3-1e524da995f5
   Frame=14   LoadPat=P   CoordSys=GLOBAL   Type=Force   Dir=Gravity   DistType=RelDist   RelDistA=0   RelDistB=1   AbsDistA=0   AbsDistB=6   FOverLA=-1,019716213   FOverLB=-1,019716213   GUID=385841ff-e65f-4748-9c26-21a1cb1f2096
   Frame=14   LoadPat=static   CoordSys=GLOBAL   Type=Force   Dir=Gravity   DistType=RelDist   RelDistA=0   RelDistB=1   AbsDistA=0   AbsDistB=6   FOverLA=5   FOverLB=5   GUID=614aa245-610a-4066-a9a7-b2e71255a3f1
   Frame=15   LoadPat=P   CoordSys=GLOBAL   Type=Force   Dir=Gravity   DistType=RelDist   RelDistA=0   RelDistB=1   AbsDistA=0   AbsDistB=6   FOverLA=-1,019716213   FOverLB=-1,019716213   GUID=47f847de-245b-4a9d-a57d-a32cc84d97c8
   Frame=15   LoadPat=static   CoordSys=GLOBAL   Type=Force   Dir=Gravity   DistType=RelDist   RelDistA=0   RelDistB=1   AbsDistA=0   AbsDistB=6   FOverLA=5   FOverLB=5   GUID=ddb789c6-d340-426c-a6f2-8e89a7383dff
   Frame=16   LoadPat=P   CoordSys=GLOBAL   Type=Force   Dir=Gravity   DistType=RelDist   RelDistA=0   RelDistB=1   AbsDistA=0   AbsDistB=6   FOverLA=-1,019716213   FOverLB=-1,019716213   GUID=d99a061f-0b9f-49ed-98ae-4b26ce7990b7
   Frame=16   LoadPat=static   CoordSys=GLOBAL   Type=Force   Dir=Gravity   DistType=RelDist   RelDistA=0   RelDistB=1   AbsDistA=0   AbsDistB=6   FOverLA=5   FOverLB=5   GUID=9e2db5dd-3095-4c58-b7c5-2a07e01cf01b
   Frame=17   LoadPat=P   CoordSys=GLOBAL   Type=Force   Dir=Gravity   DistType=RelDist   RelDistA=0   RelDistB=1   AbsDistA=0   AbsDistB=6   FOverLA=-1,019716213   FOverLB=-1,019716213   GUID=97f81e39-5176-4d1d-9e76-59d3e52cd7b0
   Frame=17   LoadPat=static   CoordSys=GLOBAL   Type=Force   Dir=Gravity   DistType=RelDist   RelDistA=0   RelDistB=1   AbsDistA=0   AbsDistB=6   FOverLA=5   FOverLB=5   GUID=790a4cdf-4e85-46ff-97f4-753ce7d9db61
   Frame=18   LoadPat=P   CoordSys=GLOBAL   Type=Force   Dir=Gravity   DistType=RelDist   RelDistA=0   RelDistB=1   AbsDistA=0   AbsDistB=6   FOverLA=-1,019716213   FOverLB=-1,019716213   GUID=91c37e96-c751-4124-9519-765e5097006b
   Frame=19   LoadPat=P   CoordSys=GLOBAL   Type=Force   Dir=Gravity   DistType=RelDist   RelDistA=0   RelDistB=1   AbsDistA=0   AbsDistB=6   FOverLA=-1,019716213   FOverLB=-1,019716213   GUID=2a1e87d9-575b-40c9-a1d9-7c1d92eeeb01
   Frame=20   LoadPat=P   CoordSys=GLOBAL   Type=Force   Dir=Gravity   DistType=RelDist   RelDistA=0   RelDistB=1   AbsDistA=0   AbsDistB=6   FOverLA=-1,019716213   FOverLB=-1,019716213   GUID=71c62d9c-c1a9-4d7a-b91c-fe2cb72556fe
   Frame=21   LoadPat=P   CoordSys=GLOBAL   Type=Force   Dir=Gravity   DistType=RelDist   RelDistA=0   RelDistB=1   AbsDistA=0   AbsDistB=6   FOverLA=-1,019716213   FOverLB=-1,019716213   GUID=43f28f0c-bbb6-4774-8953-8e7ce2a7d53b
   Frame=22   LoadPat=P   CoordSys=GLOBAL   Type=Force   Dir=Gravity   DistType=RelDist   RelDistA=0   RelDistB=1   AbsDistA=0   AbsDistB=6   FOverLA=-1,019716213   FOverLB=-1,019716213   GUID=0264e785-1bf3-4cfb-ba32-c44af3ac451d
   Frame=23   LoadPat=P   CoordSys=GLOBAL   Type=Force   Dir=Gravity   DistType=RelDist   RelDistA=0   RelDistB=1   AbsDistA=0   AbsDistB=6   FOverLA=-1,019716213   FOverLB=-1,019716213   GUID=fb84d742-b193-4657-80ef-e29001eec9d4
   Frame=24   LoadPat=P   CoordSys=GLOBAL   Type=Force   Dir=Gravity   DistType=RelDist   RelDistA=0   RelDistB=1   AbsDistA=0   AbsDistB=6   FOverLA=-1,019716213   FOverLB=-1,019716213   GUID=cd3ffd58-dded-4873-af46-fadb7b59ee00
   Frame=25   LoadPat=P   CoordSys=GLOBAL   Type=Force   Dir=Gravity   DistType=RelDist   RelDistA=0   RelDistB=1   AbsDistA=0   AbsDistB=6   FOverLA=-1,019716213   FOverLB=-1,019716213   GUID=a84c3f75-f117-4c90-bc52-c52fa2cb19b4
   Frame=26   LoadPat=P   CoordSys=GLOBAL   Type=Force   Dir=Gravity   DistType=RelDist   RelDistA=0   RelDistB=1   AbsDistA=0   AbsDistB=6   FOverLA=-1,019716213   FOverLB=-1,019716213   GUID=4f70189b-cc5b-4cd7-82b5-3d87e8687570
   Frame=27   LoadPat=P   CoordSys=GLOBAL   Type=Force   Dir=Gravity   DistType=RelDist   RelDistA=0   RelDistB=1   AbsDistA=0   AbsDistB=6   FOverLA=-1,019716213   FOverLB=-1,019716213   GUID=c673c942-c3c2-47b2-a86e-a39b6d9748f7
   Frame=28   LoadPat=P   CoordSys=GLOBAL   Type=Force   Dir=Gravity   DistType=RelDist   RelDistA=0   RelDistB=1   AbsDistA=0   AbsDistB=6   FOverLA=-1,019716213   FOverLB=-1,019716213   GUID=b9ba5567-1b82-4ae5-a97f-f7986e30657e
   Frame=29   LoadPat=P   CoordSys=GLOBAL   Type=Force   Dir=Gravity   DistType=RelDist   RelDistA=0   RelDistB=1   AbsDistA=0   AbsDistB=6   FOverLA=-1,019716213   FOverLB=-1,019716213   GUID=8cb5b806-dad3-40cf-ae84-b20f9ad52bde
   Frame=30   LoadPat=P   CoordSys=GLOBAL   Type=Force   Dir=Gravity   DistType=RelDist   RelDistA=0   RelDistB=1   AbsDistA=0   AbsDistB=6   FOverLA=-1,019716213   FOverLB=-1,019716213   GUID=1c2d383b-1490-465c-a6c9-014982a532e4
   Frame=31   LoadPat=P   CoordSys=GLOBAL   Type=Force   Dir=Gravity   DistType=RelDist   RelDistA=0   RelDistB=1   AbsDistA=0   AbsDistB=6   FOverLA=-1,019716213   FOverLB=-1,019716213   GUID=6b2707cd-fa1c-44b8-ab92-4eed10daa6f3
   Frame=32   LoadPat=P   CoordSys=GLOBAL   Type=Force   Dir=Gravity   DistType=RelDist   RelDistA=0   RelDistB=1   AbsDistA=0   AbsDistB=6   FOverLA=-1,019716213   FOverLB=-1,019716213   GUID=7c6f454d-8332-44fc-aae5-726f349ea5d6
   Frame=33   LoadPat=P   CoordSys=GLOBAL   Type=Force   Dir=Gravity   DistType=RelDist   RelDistA=0   RelDistB=1   AbsDistA=0   AbsDistB=6   FOverLA=-1,019716213   FOverLB=-1,019716213   GUID=8a37f021-ff1a-4727-998d-f611afcf9b73
   Frame=34   LoadPat=P   CoordSys=GLOBAL   Type=Force   Dir=Gravity   DistType=RelDist   RelDistA=0   RelDistB=1   AbsDistA=0   AbsDistB=6   FOverLA=-1,019716213   FOverLB=-1,019716213   GUID=7f9ed463-0987-459d-aaa8-1c72289d4c91
   Frame=36   LoadPat=P   CoordSys=GLOBAL   Type=Force   Dir=Gravity   DistType=RelDist   RelDistA=0   RelDistB=1   AbsDistA=0   AbsDistB=3   FOverLA=-1,019716213   FOverLB=-1,019716213   GUID=ef6a64fa-8512-4c40-aee0-ffe78b5eef12
   Frame=38   LoadPat=P   CoordSys=GLOBAL   Type=Force   Dir=Gravity   DistType=RelDist   RelDistA=0   RelDistB=1   AbsDistA=0   AbsDistB=3   FOverLA=-1,019716213   FOverLB=-1,019716213   GUID=76a8abc7-68aa-4695-8db1-d58af097c4ca
   Frame=39   LoadPat=P   CoordSys=GLOBAL   Type=Force   Dir=Gravity   DistType=RelDist   RelDistA=0   RelDistB=1   AbsDistA=0   AbsDistB=3   FOverLA=-1,019716213   FOverLB=-1,019716213   GUID=f36f30db-44a1-40cb-b4e1-1bdf671105ae
   Frame=40   LoadPat=P   CoordSys=GLOBAL   Type=Force   Dir=Gravity   DistType=RelDist   RelDistA=0   RelDistB=1   AbsDistA=0   AbsDistB=3   FOverLA=-1,019716213   FOverLB=-1,019716213   GUID=2d72031d-e1c2-4a64-97d6-cfd5df1252d0
   Frame=42   LoadPat=P   CoordSys=GLOBAL   Type=Force   Dir=Gravity   DistType=RelDist   RelDistA=0   RelDistB=1   AbsDistA=0   AbsDistB=3   FOverLA=-1,019716213   FOverLB=-1,019716213   GUID=d077a0d7-72f2-4a43-ae1c-fb820d42c341
   Frame=44   LoadPat=P   CoordSys=GLOBAL   Type=Force   Dir=Gravity   DistType=RelDist   RelDistA=0   RelDistB=1   AbsDistA=0   AbsDistB=3   FOverLA=-1,019716213   FOverLB=-1,019716213   GUID=b6c79c3f-2164-4d4e-99f1-e5b8550dbbea
   Frame=45   LoadPat=P   CoordSys=GLOBAL   Type=Force   Dir=Gravity   DistType=RelDist   RelDistA=0   RelDistB=1   AbsDistA=0   AbsDistB=3   FOverLA=-1,019716213   FOverLB=-1,019716213   GUID=cf3e2d8f-b7d7-496e-876a-419aad9e6992
   Frame=46   LoadPat=P   CoordSys=GLOBAL   Type=Force   Dir=Gravity   DistType=RelDist   RelDistA=0   RelDistB=1   AbsDistA=0   AbsDistB=3   FOverLA=-1,019716213   FOverLB=-1,019716213   GUID=7ad7e871-c97f-4f05-ae79-438a9610ceec
   Frame=48   LoadPat=P   CoordSys=GLOBAL   Type=Force   Dir=Gravity   DistType=RelDist   RelDistA=0   RelDistB=1   AbsDistA=0   AbsDistB=3   FOverLA=-1,019716213   FOverLB=-1,019716213   GUID=e55603cc-733f-4c67-9fd6-65d4e868417b
   Frame=50   LoadPat=P   CoordSys=GLOBAL   Type=Force   Dir=Gravity   DistType=RelDist   RelDistA=0   RelDistB=1   AbsDistA=0   AbsDistB=3   FOverLA=-1,019716213   FOverLB=-1,019716213   GUID=ed052f2d-dc5c-40f3-acfc-117d2665b558
   Frame=51   LoadPat=P   CoordSys=GLOBAL   Type=Force   Dir=Gravity   DistType=RelDist   RelDistA=0   RelDistB=1   AbsDistA=0   AbsDistB=3   FOverLA=-1,019716213   FOverLB=-1,019716213   GUID=6fc6a7c8-10c7-4a30-bd5c-8be0aeffcc10
   Frame=52   LoadPat=P   CoordSys=GLOBAL   Type=Force   Dir=Gravity   DistType=RelDist   RelDistA=0   RelDistB=1   AbsDistA=0   AbsDistB=3   FOverLA=-1,019716213   FOverLB=-1,019716213   GUID=77e84014-917a-4792-a4be-30c3e13d3cb3
   Frame=54   LoadPat=P   CoordSys=GLOBAL   Type=Force   Dir=Gravity   DistType=RelDist   RelDistA=0   RelDistB=1   AbsDistA=0   AbsDistB=3   FOverLA=-1,019716213   FOverLB=-1,019716213   GUID=8e9f7876-41d8-476c-8a04-4704bf07d5a5
   Frame=56   LoadPat=P   CoordSys=GLOBAL   Type=Force   Dir=Gravity   DistType=RelDist   RelDistA=0   RelDistB=1   AbsDistA=0   AbsDistB=3   FOverLA=-1,019716213   FOverLB=-1,019716213   GUID=81839219-f2dd-4d24-8cad-5fb762217469
   Frame=58   LoadPat=P   CoordSys=GLOBAL   Type=Force   Dir=Gravity   DistType=RelDist   RelDistA=0   RelDistB=1   AbsDistA=0   AbsDistB=3   FOverLA=-1,019716213   FOverLB=-1,019716213   GUID=ce0d779f-a5e5-4c4b-98d6-4b2fff842297
 
TABLE:  "FRAME LOAD TRANSFER OPTIONS"
   Frame=1   Transfer=Yes
   Frame=2   Transfer=Yes
   Frame=3   Transfer=Yes
   Frame=4   Transfer=Yes
   Frame=5   Transfer=Yes
   Frame=6   Transfer=Yes
   Frame=7   Transfer=Yes
   Frame=8   Transfer=Yes
   Frame=9   Transfer=Yes
   Frame=10   Transfer=Yes
   Frame=11   Transfer=Yes
   Frame=12   Transfer=Yes
   Frame=13   Transfer=Yes
   Frame=14   Transfer=Yes
   Frame=15   Transfer=Yes
   Frame=16   Transfer=Yes
   Frame=17   Transfer=Yes
   Frame=18   Transfer=Yes
   Frame=19   Transfer=Yes
   Frame=20   Transfer=Yes
# ... 38 like lines cut
 
TABLE:  "FRAME OUTPUT STATION ASSIGNMENTS"
   Frame=1   StationType=MaxStaSpcg   MaxStaSpcg=0,5   AddAtElmInt=Yes   AddAtPtLoad=Yes
   Frame=2   StationType=MaxStaSpcg   MaxStaSpcg=0,5   AddAtElmInt=Yes   AddAtPtLoad=Yes
   Frame=3   StationType=MaxStaSpcg   MaxStaSpcg=0,5   AddAtElmInt=Yes   AddAtPtLoad=Yes
   Frame=4   StationType=MaxStaSpcg   MaxStaSpcg=0,5   AddAtElmInt=Yes   AddAtPtLoad=Yes
   Frame=5   StationType=MaxStaSpcg   MaxStaSpcg=0,5   AddAtElmInt=Yes   AddAtPtLoad=Yes
   Frame=6   StationType=MaxStaSpcg   MaxStaSpcg=0,5   AddAtElmInt=Yes   AddAtPtLoad=Yes
   Frame=7   StationType=MaxStaSpcg   MaxStaSpcg=0,5   AddAtElmInt=Yes   AddAtPtLoad=Yes
   Frame=8   StationType=MaxStaSpcg   MaxStaSpcg=0,5   AddAtElmInt=Yes   AddAtPtLoad=Yes
   Frame=9   StationType=MaxStaSpcg   MaxStaSpcg=0,5   AddAtElmInt=Yes   AddAtPtLoad=Yes
   Frame=10   StationType=MaxStaSpcg   MaxStaSpcg=0,5   AddAtElmInt=Yes   AddAtPtLoad=Yes
   Frame=11   StationType=MaxStaSpcg   MaxStaSpcg=0,5   AddAtElmInt=Yes   AddAtPtLoad=Yes
   Frame=12   StationType=MaxStaSpcg   MaxStaSpcg=0,5   AddAtElmInt=Yes   AddAtPtLoad=Yes
   Frame=13   StationType=MaxStaSpcg   MaxStaSpcg=0,5   AddAtElmInt=Yes   AddAtPtLoad=Yes
   Frame=14   StationType=MaxStaSpcg   MaxStaSpcg=0,5   AddAtElmInt=Yes   AddAtPtLoad=Yes
   Frame=15   StationType=MaxStaSpcg   MaxStaSpcg=0,5   AddAtElmInt=Yes   AddAtPtLoad=Yes
   Frame=16   StationType=MaxStaSpcg   MaxStaSpcg=0,5   AddAtElmInt=Yes   AddAtPtLoad=Yes
   Frame=17   StationType=MaxStaSpcg   MaxStaSpcg=0,5   AddAtElmInt=Yes   AddAtPtLoad=Yes
   Frame=18   StationType=MaxStaSpcg   MaxStaSpcg=0,5   AddAtElmInt=Yes   AddAtPtLoad=Yes
   Frame=19   StationType=MaxStaSpcg   MaxStaSpcg=0,5   AddAtElmInt=Yes   AddAtPtLoad=Yes
   Frame=20   StationType=MaxStaSpcg   MaxStaSpcg=0,5   AddAtElmInt=Yes   AddAtPtLoad=Yes
# ... 14 like lines cut
   Frame=35   StationType=MinNumSta   MinNumSta=3   AddAtElmInt=Yes   AddAtPtLoad=Yes
   Frame=36   StationType=MinNumSta   MinNumSta=3   AddAtElmInt=Yes   AddAtPtLoad=Yes
   Frame=37   StationType=MinNumSta   MinNumSta=3   AddAtElmInt=Yes   AddAtPtLoad=Yes
   Frame=38   StationType=MinNumSta   MinNumSta=3   AddAtElmInt=Yes   AddAtPtLoad=Yes
   Frame=39   StationType=MinNumSta   MinNumSta=3   AddAtElmInt=Yes   AddAtPtLoad=Yes
   Frame=40   StationType=MinNumSta   MinNumSta=3   AddAtElmInt=Yes   AddAtPtLoad=Yes
   Frame=41   StationType=MinNumSta   MinNumSta=3   AddAtElmInt=Yes   AddAtPtLoad=Yes
   Frame=42   StationType=MinNumSta   MinNumSta=3   AddAtElmInt=Yes   AddAtPtLoad=Yes
   Frame=43   StationType=MinNumSta   MinNumSta=3   AddAtElmInt=Yes   AddAtPtLoad=Yes
   Frame=44   StationType=MinNumSta   MinNumSta=3   AddAtElmInt=Yes   AddAtPtLoad=Yes
   Frame=45   StationType=MinNumSta   MinNumSta=3   AddAtElmInt=Yes   AddAtPtLoad=Yes
   Frame=46   StationType=MinNumSta   MinNumSta=3   AddAtElmInt=Yes   AddAtPtLoad=Yes
   Frame=47   StationType=MinNumSta   MinNumSta=3   AddAtElmInt=Yes   AddAtPtLoad=Yes
   Frame=48   StationType=MinNumSta   MinNumSta=3   AddAtElmInt=Yes   AddAtPtLoad=Yes
   Frame=49   StationType=MinNumSta   MinNumSta=3   AddAtElmInt=Yes   AddAtPtLoad=Yes
   Frame=50   StationType=MinNumSta   MinNumSta=3   AddAtElmInt=Yes   AddAtPtLoad=Yes
   Frame=51   StationType=MinNumSta   MinNumSta=3   AddAtElmInt=Yes   AddAtPtLoad=Yes
   Frame=52   StationType=MinNumSta   MinNumSta=3   AddAtElmInt=Yes   AddAtPtLoad=Yes
   Frame=53   StationType=MinNumSta   MinNumSta=3   AddAtElmInt=Yes   AddAtPtLoad=Yes
   Frame=54   StationType=MinNumSta   MinNumSta=3   AddAtElmInt=Yes   AddAtPtLoad=Yes
# ... 4 like lines cut
 
TABLE:  "FRAME SECTION ASSIGNMENTS"
   Frame=1   AutoSelect=N.A.   AnalSect=RECT_50x30   MatProp=Default
   Frame=2   AutoSelect=N.A.   AnalSect=RECT_50x30   MatProp=Default
   Frame=3   AutoSelect=N.A.   AnalSect=RECT_50x30   MatProp=Default
   Frame=4   AutoSelect=N.A.   AnalSect=RECT_50x30   MatProp=Default
   Frame=5   AutoSelect=N.A.   AnalSect=RECT_50x30   MatProp=Default
   Frame=6   AutoSelect=N.A.   AnalSect=RECT_50x30   MatProp=Default
   Frame=7   AutoSelect=N.A.   AnalSect=RECT_50x30   MatProp=Default
   Frame=8   AutoSelect=N.A.   AnalSect=RECT_50x30   MatProp=Default
   Frame=9   AutoSelect=N.A.   AnalSect=RECT_50x30   MatProp=Default
   Frame=10   AutoSelect=N.A.   AnalSect=RECT_50x30   MatProp=Default
   Frame=11   AutoSelect=N.A.   AnalSect=RECT_50x30   MatProp=Default
   Frame=12   AutoSelect=N.A.   AnalSect=RECT_50x30   MatProp=Default
   Frame=13   AutoSelect=N.A.   AnalSect=RECT_50x30   MatProp=Default
   Frame=14   AutoSelect=N.A.   AnalSect=RECT_50x30   MatProp=Default
   Frame=15   AutoSelect=N.A.   AnalSect=RECT_50x30   MatProp=Default
   Frame=16   AutoSelect=N.A.   AnalSect=RECT_50x30   MatProp=Default
   Frame=17   AutoSelect=N.A.   AnalSect=RECT_50x30   MatProp=Default
   Frame=18   AutoSelect=N.A.   AnalSect=RECT_50x30   MatProp=Default
   Frame=19   AutoSelect=N.A.   AnalSect=RECT_50x30   MatProp=Default
   Frame=20   AutoSelect=N.A.   AnalSect=RECT_50x30   MatProp=Default
# ... 38 like lines cut
 
TABLE:  "FRAME SECTION PROPERTIES 01 - GENERAL"
   SectionName=RECT_50x30   Material=MAT1   Shape=Rectangular   t3=0,5   t2=0,3   Area=0,15   TorsConst=0,0028173708   I33=0,0031249999999999997   I22=0,001125   I23=0   AS2=0,125   AS3=0,125   S33Top=0,012499999999999999 _
        S33Bot=0,012499999999999999   S22Left=0,0075   S22Right=0,0075   Z33=0,01875   Z22=0,01125   R33=0,14433756729740643   R22=0,08660254037844387   CGOffset3=0   CGOffset2=0   EccV2=0   EccV3=0   Cw=0   Color=Blue   FromFile=No _
        AMod=1   A2Mod=1   A3Mod=1   JMod=1   I2Mod=1   I3Mod=1   MMod=1   WMod=1   GUID=78b7931e-2ae9-4f7c-b305-3c3dc4afa75e   Notes="Added 02.12.2025 19:21:01"
   SectionName=RECT_50x50   Material=MAT1   Shape=Rectangular   t3=0,5   t2=0,5   Area=0,25   TorsConst=0,008802083333333332   I33=0,005208333333333333   I22=0,005208333333333333   I23=0   AS2=0,20833333333333334   AS3=0,20833333333333334 _
        S33Top=0,020833333333333332   S33Bot=0,020833333333333332   S22Left=0,020833333333333332   S22Right=0,020833333333333332   Z33=0,03125   Z22=0,03125   R33=0,14433756729740643   R22=0,14433756729740643   CGOffset3=0   CGOffset2=0 _
        EccV2=0   EccV3=0   Cw=0   Color=Magenta   FromFile=No   AMod=1   A2Mod=1   A3Mod=1   JMod=1   I2Mod=1   I3Mod=1   MMod=1   WMod=1   GUID=47b19f73-50b4-4cbb-b994-bf9e598e856d   Notes="Added 02.12.2025 19:21:01"
   SectionName=RECT_60x60   Material=MAT1   Shape=Rectangular   t3=0,6   t2=0,6   Area=0,36   TorsConst=0,01825199999999999   I33=0,010799999999999997   I22=0,010799999999999997   I23=0   AS2=0,3   AS3=0,3   S33Top=0,03599999999999999 _
        S33Bot=0,03599999999999999   S22Left=0,03599999999999999   S22Right=0,03599999999999999   Z33=0,054   Z22=0,054   R33=0,1732050807568877   R22=0,1732050807568877   CGOffset3=0   CGOffset2=0   EccV2=0   EccV3=0   Cw=0 _
        Color=Gray8Dark   FromFile=No   AMod=1   A2Mod=1   A3Mod=1   JMod=1   I2Mod=1   I3Mod=1   MMod=1   WMod=1   GUID=b2172dad-0437-41cf-a9c0-db9fb5648908   Notes="Added 02.12.2025 19:21:01"
   SectionName=RECT_70x70   Material=MAT1   Shape=Rectangular   t3=0,7   t2=0,7   Area=0,48999999999999994   TorsConst=0,033814083333333314   I33=0,020008333333333326   I22=0,020008333333333326   I23=0   AS2=0,40833333333333327 _
        AS3=0,40833333333333327   S33Top=0,05716666666666665   S33Bot=0,05716666666666665   S22Left=0,05716666666666665   S22Right=0,05716666666666665   Z33=0,08574999999999998   Z22=0,08574999999999998   R33=0,202072594216369 _
        R22=0,202072594216369   CGOffset3=0   CGOffset2=0   EccV2=0   EccV3=0   Cw=0   Color=Cyan   FromFile=No   AMod=1   A2Mod=1   A3Mod=1   JMod=1   I2Mod=1   I3Mod=1   MMod=1   WMod=1   GUID=9e41f2de-3ec8-40f4-857d-765779b3c347   Notes="Added 02.12.2025 19:21:01"
 
TABLE:  "FRAME SECTION PROPERTIES 02 - CONCRETE COLUMN"
   SectionName=RECT_50x30   RebarMatL=A615Gr60   RebarMatC=A615Gr60   ReinfConfig=Rectangular   LatReinf=Ties   Cover=0,04   NumBars3Dir=3   NumBars2Dir=3   BarSizeL=#9   BarSizeC=#4   SpacingC=0,15   NumCBars2=3   NumCBars3=3   ReinfType=Design
   SectionName=RECT_50x50   RebarMatL=A615Gr60   RebarMatC=A615Gr60   ReinfConfig=Rectangular   LatReinf=Ties   Cover=0,04   NumBars3Dir=3   NumBars2Dir=3   BarSizeL=#9   BarSizeC=#4   SpacingC=0,15   NumCBars2=3   NumCBars3=3   ReinfType=Design
   SectionName=RECT_60x60   RebarMatL=A615Gr60   RebarMatC=A615Gr60   ReinfConfig=Rectangular   LatReinf=Ties   Cover=0,04   NumBars3Dir=3   NumBars2Dir=3   BarSizeL=#9   BarSizeC=#4   SpacingC=0,15   NumCBars2=3   NumCBars3=3   ReinfType=Design
   SectionName=RECT_70x70   RebarMatL=A615Gr60   RebarMatC=A615Gr60   ReinfConfig=Rectangular   LatReinf=Ties   Cover=0,04   NumBars3Dir=3   NumBars2Dir=3   BarSizeL=#9   BarSizeC=#4   SpacingC=0,15   NumCBars2=3   NumCBars3=3   ReinfType=Design
 
TABLE:  "FRAME SECTION PROPERTIES 13 - TIME DEPENDENT"
   SectionName=RECT_50x30   TypeSize=Auto   AutoSFSize=1
   SectionName=RECT_50x50   TypeSize=Auto   AutoSFSize=1
   SectionName=RECT_60x60   TypeSize=Auto   AutoSFSize=1
   SectionName=RECT_70x70   TypeSize=Auto   AutoSFSize=1
 
TABLE:  "FUNCTION - PLOT FUNCTIONS"
   PlotFunc="Input Energy"   Type=Energy   Component=Input   Mode=All
 
TABLE:  "GRID LINES"
   CoordSys=GLOBAL   AxisDir=X   XRYZCoord=0   LineType=Primary   LineColor=Gray8Dark   Visible=Yes   BubbleLoc=End   AllVisible=Yes   BubbleSize=1
   CoordSys=GLOBAL   AxisDir=X   XRYZCoord=18   LineType=Primary   LineColor=Gray8Dark   Visible=Yes   BubbleLoc=End
   CoordSys=GLOBAL   AxisDir=Y   XRYZCoord=0   LineType=Primary   LineColor=Gray8Dark   Visible=Yes   BubbleLoc=End
   CoordSys=GLOBAL   AxisDir=Y   XRYZCoord=12   LineType=Primary   LineColor=Gray8Dark   Visible=Yes   BubbleLoc=End
   CoordSys=GLOBAL   AxisDir=Z   XRYZCoord=0   LineType=Primary   LineColor=Gray8Dark   Visible=Yes   BubbleLoc=End
   CoordSys=GLOBAL   AxisDir=Z   XRYZCoord=6   LineType=Primary   LineColor=Gray8Dark   Visible=Yes   BubbleLoc=End
 
TABLE:  "GROUPS 1 - DEFINITIONS"
   GroupName=ALL   Selection=Yes   SectionCut=Yes   Steel=Yes   Concrete=Yes   Aluminum=Yes   ColdFormed=Yes   Stage=Yes   Bridge=Yes   AutoSeismic=No   AutoWind=No   SelDesSteel=No   SelDesAlum=No   SelDesCold=No   MassWeight=Yes   Color=Red
 
TABLE:  "JOINT COORDINATES"
   Joint=1   CoordSys=GLOBAL   CoordType=Cartesian   XorR=0   Y=0   Z=0   SpecialJt=Yes
   Joint=2   CoordSys=GLOBAL   CoordType=Cartesian   XorR=0   Y=0   Z=3   SpecialJt=Yes
   Joint=3   CoordSys=GLOBAL   CoordType=Cartesian   XorR=0   Y=0   Z=6   SpecialJt=Yes
   Joint=4   CoordSys=GLOBAL   CoordType=Cartesian   XorR=0   Y=6   Z=0   SpecialJt=Yes
   Joint=5   CoordSys=GLOBAL   CoordType=Cartesian   XorR=0   Y=6   Z=3   SpecialJt=Yes
   Joint=6   CoordSys=GLOBAL   CoordType=Cartesian   XorR=0   Y=6   Z=6   SpecialJt=Yes
   Joint=7   CoordSys=GLOBAL   CoordType=Cartesian   XorR=0   Y=12   Z=0   SpecialJt=Yes
   Joint=8   CoordSys=GLOBAL   CoordType=Cartesian   XorR=0   Y=12   Z=3   SpecialJt=Yes
   Joint=9   CoordSys=GLOBAL   CoordType=Cartesian   XorR=0   Y=12   Z=6   SpecialJt=Yes
   Joint=10   CoordSys=GLOBAL   CoordType=Cartesian   XorR=6   Y=0   Z=0   SpecialJt=Yes
   Joint=11   CoordSys=GLOBAL   CoordType=Cartesian   XorR=6   Y=0   Z=3   SpecialJt=Yes
   Joint=12   CoordSys=GLOBAL   CoordType=Cartesian   XorR=6   Y=0   Z=6   SpecialJt=Yes
   Joint=13   CoordSys=GLOBAL   CoordType=Cartesian   XorR=6   Y=6   Z=0   SpecialJt=Yes
   Joint=14   CoordSys=GLOBAL   CoordType=Cartesian   XorR=6   Y=6   Z=6   SpecialJt=Yes
   Joint=15   CoordSys=GLOBAL   CoordType=Cartesian   XorR=6   Y=12   Z=0   SpecialJt=Yes
   Joint=16   CoordSys=GLOBAL   CoordType=Cartesian   XorR=6   Y=12   Z=3   SpecialJt=Yes
   Joint=17   CoordSys=GLOBAL   CoordType=Cartesian   XorR=6   Y=12   Z=6   SpecialJt=Yes
   Joint=18   CoordSys=GLOBAL   CoordType=Cartesian   XorR=12   Y=0   Z=0   SpecialJt=Yes
   Joint=19   CoordSys=GLOBAL   CoordType=Cartesian   XorR=12   Y=0   Z=3   SpecialJt=Yes
   Joint=20   CoordSys=GLOBAL   CoordType=Cartesian   XorR=12   Y=0   Z=6   SpecialJt=Yes
# ... 16 like lines cut
 
TABLE:  "JOINT PATTERN DEFINITIONS"
   Pattern=Default
 
TABLE:  "JOINT RESTRAINT ASSIGNMENTS"
   Joint=1   U1=Yes   U2=Yes   U3=Yes   R1=Yes   R2=Yes   R3=Yes
   Joint=4   U1=Yes   U2=Yes   U3=Yes   R1=Yes   R2=Yes   R3=Yes
   Joint=7   U1=Yes   U2=Yes   U3=Yes   R1=Yes   R2=Yes   R3=Yes
   Joint=10   U1=Yes   U2=Yes   U3=Yes   R1=Yes   R2=Yes   R3=Yes
   Joint=13   U1=Yes   U2=Yes   U3=Yes   R1=Yes   R2=Yes   R3=Yes
   Joint=15   U1=Yes   U2=Yes   U3=Yes   R1=Yes   R2=Yes   R3=Yes
   Joint=18   U1=Yes   U2=Yes   U3=Yes   R1=Yes   R2=Yes   R3=Yes
   Joint=21   U1=Yes   U2=Yes   U3=Yes   R1=Yes   R2=Yes   R3=Yes
   Joint=23   U1=Yes   U2=Yes   U3=Yes   R1=Yes   R2=Yes   R3=Yes
   Joint=26   U1=Yes   U2=Yes   U3=Yes   R1=Yes   R2=Yes   R3=Yes
   Joint=29   U1=Yes   U2=Yes   U3=Yes   R1=Yes   R2=Yes   R3=Yes
   Joint=32   U1=Yes   U2=Yes   U3=Yes   R1=Yes   R2=Yes   R3=Yes
 
TABLE:  "LOAD CASE DEFINITIONS"
   Case=DEAD   Type=LinStatic   InitialCond=Zero   DesTypeOpt="Prog Det"   DesignType=Other   DesActOpt="Prog Det"   DesignAct=Other   AutoType=None   RunCase=Yes   GUID=468a1565-e867-4ab2-9b96-5fabdc75eaa1
   Case=SDEAD   Type=LinStatic   InitialCond=Zero   DesTypeOpt="Prog Det"   DesignType=Other   DesActOpt="Prog Det"   DesignAct=Other   AutoType=None   RunCase=Yes   GUID=18d6b985-8bdf-4def-a884-ba200c69e0fe
   Case=P   Type=LinStatic   InitialCond=Zero   DesTypeOpt="Prog Det"   DesignType=Other   DesActOpt="Prog Det"   DesignAct=Other   AutoType=None   RunCase=Yes   GUID=0f11b524-59db-4832-8a27-8ecde7ccec4b
   Case=static   Type=LinStatic   InitialCond=Zero   DesTypeOpt="Prog Det"   DesignType=Other   DesActOpt="Prog Det"   DesignAct=Other   AutoType=None   RunCase=Yes   GUID=be73d6df-af8f-451b-a0c1-6a74f77c1a16
 
TABLE:  "LOAD PATTERN DEFINITIONS"
   LoadPat=DEAD   DesignType=Dead   SelfWtMult=1   GUID=9c2edf94-783d-432b-a227-c94f64b37ac6
   LoadPat=SDEAD   DesignType=Dead   SelfWtMult=1   GUID=331ba12a-dab3-42ba-b328-896b13355ac1
   LoadPat=P   DesignType=Other   SelfWtMult=0   GUID=bea36063-30db-45c2-95d2-2f8186d3b8e4
   LoadPat=static   DesignType=Other   SelfWtMult=0   GUID=ab4d47b7-d78a-4768-a2a0-33dada819cd2
 
TABLE:  "MASS SOURCE"
   MassSource=MSSSRC1   Elements=Yes   Masses=Yes   Loads=No   IsDefault=Yes
 
TABLE:  "MATERIAL PROPERTIES 01 - GENERAL"
   Material=A416Gr270   Type=Tendon   Grade="Grade 270"   SymType=Uniaxial   TempDepend=No   Color=Cyan   GUID=027daa59-099b-4d6d-9e12-614bbc82b4e4   Notes="ASTM A416 Grade 270 02.12.2025 19:21:01"
   Material=A615Gr60   Type=Rebar   Grade="Grade 60"   SymType=Uniaxial   TempDepend=No   Color=Magenta   GUID=2ff75420-f0b5-40ad-81b9-13a7807d1cbd   Notes="ASTM A615 Grade 60 02.12.2025 19:21:04"
   Material=A992Fy50   Type=Steel   Grade="Grade 50"   SymType=Isotropic   TempDepend=No   Color=Green   GUID=de2c0149-a561-4e6c-8d7e-0aed545c17b1   Notes="ASTM A992 Grade 50 02.12.2025 19:21:01"
   Material=MAT1   Type=Concrete   Grade="f'c 4000 psi"   SymType=Isotropic   TempDepend=No   Color=Gray8Dark   GUID=cb24c48a-e4d5-4ce9-b2a9-d6ca3e180c21   Notes="Customary f'c 4000 psi 02.12.2025 19:21:01"
 
TABLE:  "MATERIAL PROPERTIES 02 - BASIC MECHANICAL PROPERTIES"
   Material=A416Gr270   UnitWeight=76,97286394226482   UnitMass=7,849047379959921   E1=196500599,8511997   A1=1,1699999442100551E-05
   Material=A615Gr60   UnitWeight=76,97286394226482   UnitMass=7,849047379959921   E1=199947978,79595757   A1=1,1699999442100551E-05
   Material=A992Fy50   UnitWeight=76,97286394226482   UnitMass=7,849047379959921   E1=199947978,79595757   G12=76903068,76767598   U12=0,3   A1=1,1699999442100551E-05
   Material=MAT1   UnitWeight=25,001177400000003   UnitMass=2,54854   E1=33011272,96443   G12=13754697,068512501   U12=0,2   A1=0
 
TABLE:  "MATERIAL PROPERTIES 03A - STEEL DATA"
   Material=A992Fy50   Fy=344737,8944757889   Fu=448159,2628185256   EffFy=379211,6839233678   EffFu=492975,1891003782   SSCurveOpt=Simple   SSHysType=Kinematic   SHard=0,015   SMax=0,11   SRup=0,17   FinalSlope=-0,1   CoupModType="Von Mises"
 
TABLE:  "MATERIAL PROPERTIES 03B - CONCRETE DATA"
   Material=MAT1   Fc=30000   eFc=30000   LtWtConc=No   SSCurveOpt=Mander   SSHysType=Takeda   SFc=0,00181818   SCap=0,005   FinalSlope=-0,1   FAngle=0   DAngle=0   CoupModType="Modified Darwin-Pecknold"
 
TABLE:  "MATERIAL PROPERTIES 03E - REBAR DATA"
   Material=A615Gr60   Fy=413685,4733709467   Fu=620528,2100564201   EffFy=455054,0207080414   EffFu=682581,0310620621   SSCurveOpt=Simple   SSHysType=Kinematic   SHard=0,01   SCap=0,09   FinalSlope=-0,1   UseCTDef=No   CoupModType="Von Mises"
 
TABLE:  "MATERIAL PROPERTIES 03F - TENDON DATA"
   Material=A416Gr270   Fy=1689905,1587203173   Fu=1861584,6301692603   SSCurveOpt="270 ksi"   SSHysType=Kinematic   FinalSlope=-0,1   CoupModType="Von Mises"
 
TABLE:  "MATERIAL PROPERTIES 03J - COUPLED NONLINEAR VON MISES DATA"
   Material=A416Gr270   YieldStress=1689905,1587203173   LinIsoHard=No   LinKinHard=No   NLIsoSaHard=No
   Material=A615Gr60   YieldStress=455054,0207080414   LinIsoHard=No   LinKinHard=No   NLIsoSaHard=No
   Material=A992Fy50   YieldStress=379211,6839233678   LinIsoHard=No   LinKinHard=No   NLIsoSaHard=No
 
TABLE:  "MATERIAL PROPERTIES 06 - DAMPING PARAMETERS"
   Material=A416Gr270   ModalRatio=0   VisMass=0   VisStiff=0   HysMass=0   HysStiff=0
   Material=A615Gr60   ModalRatio=0   VisMass=0   VisStiff=0   HysMass=0   HysStiff=0
   Material=A992Fy50   ModalRatio=0   VisMass=0   VisStiff=0   HysMass=0   HysStiff=0
   Material=MAT1   ModalRatio=0   VisMass=0   VisStiff=0   HysMass=0   HysStiff=0
 
TABLE:  "MATERIAL PROPERTIES 09 - ACCEPTANCE CRITERIA"
   Material=A416Gr270   IOTens=0,015   LSTens=0,023   CPTens=0,03   IOComp=-0,015   LSComp=-0,023   CPComp=-0,03
   Material=A615Gr60   IOTens=0,01   LSTens=0,02   CPTens=0,05   IOComp=-0,005   LSComp=-0,01   CPComp=-0,02
   Material=A992Fy50   IOTens=0,01   LSTens=0,02   CPTens=0,05   IOComp=-0,005   LSComp=-0,01   CPComp=-0,02
   Material=MAT1   IOTens=0,01   LSTens=0,02   CPTens=0,05   IOComp=-0,003   LSComp=-0,006   CPComp=-0,015   IgnoreTens=Yes
 
TABLE:  "OPTIONS - COLORS - DISPLAY"
   DeviceType=Screen   Points=Blue   LinesFrame=Blue   LinesFrmDL=Blue   LinesCable=Green   LinesTendon=Green   SpringLinks=Green   Restraints=Green   Releases=Green   Axes=Cyan   Text=Black   ShadowLines=Gray8Dark   GuideLines=Gray8Dark _
        Highlight=Red   Selection=10504778   AreaFillBot=Red   AreaFillTop=16744703   AreaFillSd=Red   AreaEdge=DarkRed   SolidF1=Red   SolidF2=Blue   SolidF3=Green   SolidF4=Yellow   SolidF5=White   SolidF6=Cyan   SolidEdge=DarkRed _
        Floor=Gray4   Background=White   BGLowLeft=White   BGLowRight=White   BGUpRight=White   Darkness=0
   DeviceType=Printer   Points=Gray8Dark   LinesFrame=Black   LinesFrmDL=Gray4   LinesCable=Black   LinesTendon=Black   SpringLinks=Gray8Dark   Restraints=Gray8Dark   Releases=Gray4   Axes=Black   Text=Black   ShadowLines=Gray4 _
        GuideLines=Gray4   Highlight=Black   Selection=Black   AreaFillBot=Gray4   AreaFillTop=Gray8Dark   AreaFillSd=Gray4   AreaEdge=Black   SolidF1=Gray1Light   SolidF2=Gray2   SolidF3=Gray3   SolidF4=Gray4   SolidF5=Gray5 _
        SolidF6=Gray6   SolidEdge=Black   Floor=Gray4   Background=White   BGLowLeft=White   BGLowRight=White   BGUpRight=White   Darkness=0,5
   DeviceType="Color Printer"   Points=Blue   LinesFrame=Blue   LinesFrmDL=Blue   LinesCable=Green   LinesTendon=Green   SpringLinks=Green   Restraints=Green   Releases=Green   Axes=Cyan   Text=Black   ShadowLines=Gray8Dark _
        GuideLines=Gray8Dark   Highlight=Red   Selection=10504778   AreaFillBot=Red   AreaFillTop=16744703   AreaFillSd=Red   AreaEdge=DarkRed   SolidF1=Red   SolidF2=Blue   SolidF3=Green   SolidF4=Yellow   SolidF5=White   SolidF6=Cyan _
        SolidEdge=DarkRed   Floor=Gray4   Background=White   BGLowLeft=White   BGLowRight=White   BGUpRight=White   Darkness=0,5
 
TABLE:  "OPTIONS - COLORS - OUTPUT"
   DeviceType=Screen   Contour1=13107400   Contour2=6553828   Contour3=Red   Contour4=16639   Contour5=Orange   Contour6=43775   Contour7=54527   Contour8=Yellow   Contour9=65408   Contour10=Green   Contour11=8453888   Contour12=Cyan _
        Contour13=16755200   Contour14=16733440   Contour15=Blue   Transpare=0   Ratio1=Cyan   Ratio2=Green   Ratio3=Yellow   Ratio4=Orange   Ratio5=Red   RatioNotD=Gray4   RatioNotC=Red   RatioVal1=0,5   RatioVal2=0,7   RatioVal3=0,9 _
        RatioVal4=1   DFillPos=Blue   DFillNeg=Red   DFillRPos=9498256   DFillRNeg=9498256
   DeviceType=Printer   Contour1=Black   Contour2=3158064   Contour3=4210752   Contour4=5263440   Contour5=6316128   Contour6=7368816   Contour7=Gray8Dark   Contour8=Gray7   Contour9=Gray6   Contour10=Gray5   Contour11=Gray4 _
        Contour12=Gray3   Contour13=Gray2   Contour14=Gray1Light   Contour15=White   Transpare=0   Ratio1=Gray2   Ratio2=Gray4   Ratio3=Gray8Dark   Ratio4=4210752   Ratio5=Black   RatioNotD=Gray4   RatioNotC=Black   RatioVal1=0,5 _
        RatioVal2=0,7   RatioVal3=0,9   RatioVal4=1   DFillPos=Gray8Dark   DFillNeg=Gray8Dark   DFillRPos=4210752   DFillRNeg=4210752
   DeviceType="Color Printer"   Contour1=13107400   Contour2=6553828   Contour3=Red   Contour4=16639   Contour5=Orange   Contour6=43775   Contour7=54527   Contour8=Yellow   Contour9=65408   Contour10=Green   Contour11=8453888 _
        Contour12=Cyan   Contour13=16755200   Contour14=16733440   Contour15=Blue   Transpare=0   Ratio1=Cyan   Ratio2=Green   Ratio3=Yellow   Ratio4=Orange   Ratio5=Red   RatioNotD=Gray4   RatioNotC=Red   RatioVal1=0,5   RatioVal2=0,7 _
        RatioVal3=0,9   RatioVal4=1   DFillPos=Blue   DFillNeg=Red   DFillRPos=9498256   DFillRNeg=9498256
 
TABLE:  "PREFERENCES - ALUMINUM DESIGN - AA 2015"
   THDesign=Envelopes   SRatioLimit=1   Provision=LRFD   LatFact=1,3333333333333333   UseLatFact=No   Bridge=No   AMethod="Direct Analysis"   SOMethod="General 2nd Order"   SRMethod="Tau-b Fixed"   PhiTy=0,9   PhiTr=0,75   PhiC=0,9 _
        PhiBo=0,9   PhiBr=0,75   PhiVo=0,9   PhiVr=0,75
 
TABLE:  "PREFERENCES - COLD FORMED DESIGN - AISI-16"
   THDesign=Envelopes   FrameType="Braced Frame"   SRatioLimit=1   SOMethod="General 2nd Order"   Provision=LRFD   LatFact=1,3333333333333333   UseLatFact=No   PhiTy=0,9   PhiTr=0,75   PhiC=0,85   PhiB=0,9   PhiBPipe=0,95   PhiV=0,95
 
TABLE:  "PREFERENCES - CONCRETE DESIGN - ACI 318-19"
   THDesign=Envelopes   NumCurves=24   NumPoints=11   MinEccen=Yes   BCCDesign=Yes   IgnoreBPu=Yes   CTorsion=Yes   PatLLF=0,75   UFLimit=0,95   SeisCat=D   Rho=1   Sds=0,5   PhiT=0,9   PhiCTied=0,65   PhiCSpiral=0,75   PhiV=0,75 _
        PhiVSeismic=0,6   PhiVJoint=0,85   TanTheta=1
 
TABLE:  "PREFERENCES - CONCRETE SHELL DESIGN - EUROCODE 2-2004"
   Country="CEN Default"   GammaS=1,15   GammaC=1,5   AlphaCC=1   AlphaCT=1   CrackCond="Program Determined"   ShrDesMet="Method 1"   CotTheta=1   AddTenForce=Yes
 
TABLE:  "PREFERENCES - DIMENSIONAL"
   MergeTol=0,001   FineGrid=0,25   Nudge=0,25   SelectTol=3   SnapTol=12   SLineThick=1   PLineThick=4   MaxFont=12   MinFont=6   AutoZoom=10   ShrinkFact=70   TextFileLen=240
 
TABLE:  "PREFERENCES - STEEL DESIGN - AISC 360-16"
   THDesign=Envelopes   FrameType=SMF   PatLLF=0,75   SRatioLimit=0,95   MaxIter=1   SDC=D   SeisCode=No   SeisLoad=No   ImpFactor=1   SystemRho=1   SystemSds=0,5   SystemR=8   SystemCd=5,5   Omega0=3   Provision=LRFD _
        AMethod="Direct Analysis"   SOMethod="General 2nd Order"   SRMethod="Tau-b Fixed"   NLCoeff=0,002   PhiB=0,9   PhiC=0,9   PhiTY=0,9   PhiTF=0,75   PhiV=0,9   PhiVRolledI=1   PhiVT=0,9   PlugWeld=Yes   HSSWelding=ERW   HSSReduceT=No _
        CheckDefl=No   DLRat=120   SDLAndLLRat=120   LLRat=360   TotalRat=240   NetRat=240
 
TABLE:  "PROGRAM CONTROL"
   ProgramName=SAP2000   Version=26.3.0   CurrUnits="KN, m, C"   SteelCode="AISC 360-16"   ConcCode="ACI 318-19"   AlumCode="AA 2015"   ColdCode=AISI-16   ConcSCode="Eurocode 2-2004"   RegenHinge=Yes
 
TABLE:  "PROJECT INFORMATION"
   Item="Company Name"
   Item="Client Name"
   Item="Project Name"
   Item="Project Number"
   Item="Model Name"
   Item="Model Description"
   Item="Revision Number"
   Item="Frame Type"
   Item=Engineer
   Item=Checker
   Item=Supervisor
   Item="Issue Code"
   Item="Design Code"
 
TABLE:  "REBAR SIZES"
   RebarID=#2   Area=3,2258E-05   Diameter=0,00635
   RebarID=#3   Area=7,096759961545467E-05   Diameter=0,009524999999999999
   RebarID=#4   Area=0,00012903200192272663   Diameter=0,0127
   RebarID=#5   Area=0,0001999996015381813   Diameter=0,015875
   RebarID=#6   Area=0,0002838703984618187   Diameter=0,019049999999999997
   RebarID=#7   Area=0,00038709601538181303   Diameter=0,022224999999999998
   RebarID=#8   Area=0,0005096764138436317   Diameter=0,0254
   RebarID=#9   Area=0,00064516   Diameter=0,02865120053291321
   RebarID=#10   Area=0,0008193531876945496   Diameter=0,032257999515533445
   RebarID=#11   Area=0,0010064495630836487   Diameter=0,03581399915218353
   RebarID=#14   Area=0,0014516099999999999   Diameter=0,04300219895839691
   RebarID=#18   Area=0,00258064   Diameter=0,057327799224853516
   RebarID=10M   Area=0,00010000000265538693   Diameter=0,011300000667572021
   RebarID=15M   Area=0,00020000000531077386   Diameter=0,015999999940395356
   RebarID=20M   Area=0,00030000001757979393   Diameter=0,01949999978542328
   RebarID=25M   Area=0,0005000000228905678   Diameter=0,02520000160932541
   RebarID=30M   Area=0,0007000000089740753   Diameter=0,029900000882148742
   RebarID=35M   Area=0,0010000000457811356   Diameter=0,03570000114440918
   RebarID=45M   Area=0,0015000001071262359   Diameter=0,04370000035762787
   RebarID=55M   Area=0,0025000000759983062   Diameter=0,05640000338554382
   RebarID=6d   Area=2,8300000414997338E-05   Diameter=0,006000000166893005
   RebarID=8d   Area=5,0299999557137487E-05   Diameter=0,007999999970197678
   RebarID=10d   Area=7,850000136345625E-05   Diameter=0,00999999977350235
   RebarID=12d   Area=0,00011300000924944878   Diameter=0,01200000033378601
   RebarID=14d   Area=0,00015400001081883907   Diameter=0,014000000894069671
   RebarID=16d   Area=0,00020100001543164252   Diameter=0,015999999940395356
   RebarID=20d   Area=0,000314000005453825   Diameter=0,0199999995470047
   RebarID=25d   Area=0,0004910000087118149   Diameter=0,025000000190734863
   RebarID=26d   Area=0,000531000029001236   Diameter=0,025999999713897704
   RebarID=28d   Area=0,0006160000432753563   Diameter=0,028000001788139342
   RebarID=N12   Area=0,00011300000924944878   Diameter=0,01200000033378601
   RebarID=N16   Area=0,00020100001543164252   Diameter=0,015999999940395356
   RebarID=N20   Area=0,000314000005453825   Diameter=0,0199999995470047
   RebarID=N24   Area=0,0004520000369977951   Diameter=0,02400000066757202
   RebarID=N28   Area=0,0006160000432753563   Diameter=0,028000001788139342
   RebarID=N32   Area=0,0008040000617265701   Diameter=0,03199999988079071
   RebarID=N36   Area=0,0010200000174713135   Diameter=0,03600000100135803
 
TABLE:  "SOLID PROPERTY DEFINITIONS"
   SolidProp=Solid1   Material=A992Fy50   MatAngleA=0   MatAngleB=0   MatAngleC=0   InComp=Yes   Color=Magenta   GUID=53c875ee-a159-41a6-8dff-48bdbfea4151
 
END TABLE DATA
