TABLE:  "PROGRAM CONTROL"
   ProgramName=SAP2000   Version=26.3.0   CurrUnits="KN, m, C"   SteelCode="AISC 360-16"   ConcCode="ACI 318-19"   AlumCode="AA 2015"   ColdCode=AISI-16   ConcSCode="Eurocode 2-2004"   RegenHinge=Yes

TABLE:  "ACTIVE DEGREES OF FREEDOM"
   UX=Yes   UY=Yes   UZ=Yes   RX=Yes   RY=Yes   RZ=Yes

TABLE:  "ANALYSIS OPTIONS"
   Solver=Advanced   SolverProc=Auto   Force32Bit=No   StiffCase=None   GeomMod=None   HingeOpt="In Elements"   NumAThreads=0   MaxFileSize=0   NumDThreads=0   NumRThreads=0   UseMMFiles="Program Determined"   AllowDiff=No

TABLE:  "COORDINATE SYSTEMS"
   Name=GLOBAL   Type=Cartesian   X=0   Y=0   Z=0   AboutZ=0   AboutY=0   AboutX=0

TABLE:  "DATABASE FORMAT TYPES"
   UnitsCurr=Yes   OverrideE=No

TABLE:  "MASS SOURCE"
   MassSource=MSSRC1   Elements=Yes   Masses=Yes   Loads=No   IsDefault=Yes

TABLE:  "MATERIAL PROPERTIES 01 - GENERAL"

 Material=MAT1   Type=Concrete

TABLE:  "MATERIAL PROPERTIES 02 - BASIC MECHANICAL PROPERTIES"

 Material=MAT1   E=33650635.03   U12=0.2   G12=14021097.929166667   UnitWeight=25.001155602180003
TABLE:  "JOINT COORDINATES"

 Joint=1   CoordSys=GLOBAL   CoordType=Cartesian   XorR=0   Y=0   Z=0   GlobalX=0   GlobalY=0   GlobalZ=0
 Joint=2   CoordSys=GLOBAL   CoordType=Cartesian   XorR=0   Y=0   Z=3   GlobalX=0   GlobalY=0   GlobalZ=3
 Joint=3   CoordSys=GLOBAL   CoordType=Cartesian   XorR=0   Y=0   Z=6   GlobalX=0   GlobalY=0   GlobalZ=6
 Joint=4   CoordSys=GLOBAL   CoordType=Cartesian   XorR=0   Y=6   Z=0   GlobalX=0   GlobalY=6   GlobalZ=0
 Joint=5   CoordSys=GLOBAL   CoordType=Cartesian   XorR=0   Y=6   Z=3   GlobalX=0   GlobalY=6   GlobalZ=3
 Joint=6   CoordSys=GLOBAL   CoordType=Cartesian   XorR=0   Y=6   Z=6   GlobalX=0   GlobalY=6   GlobalZ=6
 Joint=7   CoordSys=GLOBAL   CoordType=Cartesian   XorR=0   Y=12   Z=0   GlobalX=0   GlobalY=12   GlobalZ=0
 Joint=8   CoordSys=GLOBAL   CoordType=Cartesian   XorR=0   Y=12   Z=3   GlobalX=0   GlobalY=12   GlobalZ=3
 Joint=9   CoordSys=GLOBAL   CoordType=Cartesian   XorR=0   Y=12   Z=6   GlobalX=0   GlobalY=12   GlobalZ=6
 Joint=10   CoordSys=GLOBAL   CoordType=Cartesian   XorR=6   Y=0   Z=0   GlobalX=6   GlobalY=0   GlobalZ=0
 Joint=11   CoordSys=GLOBAL   CoordType=Cartesian   XorR=6   Y=0   Z=3   GlobalX=6   GlobalY=0   GlobalZ=3
 Joint=12   CoordSys=GLOBAL   CoordType=Cartesian   XorR=6   Y=0   Z=6   GlobalX=6   GlobalY=0   GlobalZ=6
 Joint=13   CoordSys=GLOBAL   CoordType=Cartesian   XorR=6   Y=6   Z=0   GlobalX=6   GlobalY=6   GlobalZ=0
 Joint=14   CoordSys=GLOBAL   CoordType=Cartesian   XorR=6   Y=6   Z=6   GlobalX=6   GlobalY=6   GlobalZ=6
 Joint=15   CoordSys=GLOBAL   CoordType=Cartesian   XorR=6   Y=12   Z=0   GlobalX=6   GlobalY=12   GlobalZ=0
 Joint=16   CoordSys=GLOBAL   CoordType=Cartesian   XorR=6   Y=12   Z=3   GlobalX=6   GlobalY=12   GlobalZ=3
 Joint=17   CoordSys=GLOBAL   CoordType=Cartesian   XorR=6   Y=12   Z=6   GlobalX=6   GlobalY=12   GlobalZ=6
 Joint=18   CoordSys=GLOBAL   CoordType=Cartesian   XorR=12   Y=0   Z=0   GlobalX=12   GlobalY=0   GlobalZ=0
 Joint=19   CoordSys=GLOBAL   CoordType=Cartesian   XorR=12   Y=0   Z=3   GlobalX=12   GlobalY=0   GlobalZ=3
 Joint=20   CoordSys=GLOBAL   CoordType=Cartesian   XorR=12   Y=0   Z=6   GlobalX=12   GlobalY=0   GlobalZ=6
# ... 16 like lines cut

TABLE:  "JOINT RESTRAINT ASSIGNMENTS"

 Joint=1   U1=Yes   U2=Yes   U3=Yes   R1=Yes   R2=Yes   R3=Yes
 Joint=4   U1=Yes   U2=Yes   U3=Yes   R1=Yes   R2=Yes   R3=Yes
 Joint=7   U1=Yes   U2=Yes   U3=Yes   R1=Yes   R2=Yes   R3=Yes
 Joint=10   U1=Yes   U2=Yes   U3=Yes   R1=Yes   R2=Yes   R3=Yes
 Joint=13   U1=Yes   U2=Yes   U3=Yes   R1=Yes   R2=Yes   R3=Yes
 Joint=15   U1=Yes   U2=Yes   U3=Yes   R1=Yes   R2=Yes   R3=Yes
 Joint=18   U1=Yes   U2=Yes   U3=Yes   R1=Yes   R2=Yes   R3=Yes
 Joint=21   U1=Yes   U2=Yes   U3=Yes   R1=Yes   R2=Yes   R3=Yes
 Joint=23   U1=Yes   U2=Yes   U3=Yes   R1=Yes   R2=Yes   R3=Yes
 Joint=26   U1=Yes   U2=Yes   U3=Yes   R1=Yes   R2=Yes   R3=Yes
 Joint=29   U1=Yes   U2=Yes   U3=Yes   R1=Yes   R2=Yes   R3=Yes
 Joint=32   U1=Yes   U2=Yes   U3=Yes   R1=Yes   R2=Yes   R3=Yes

TABLE:  "CONNECTIVITY - FRAME"

 Frame=1   JointI=3   JointJ=12   IsCurved=No
 Frame=2   JointI=12   JointJ=20   IsCurved=No
 Frame=3   JointI=20   JointJ=28   IsCurved=No
 Frame=4   JointI=6   JointJ=14   IsCurved=No
 Frame=5   JointI=14   JointJ=22   IsCurved=No
 Frame=6   JointI=22   JointJ=31   IsCurved=No
 Frame=7   JointI=9   JointJ=17   IsCurved=No
 Frame=8   JointI=17   JointJ=25   IsCurved=No
 Frame=9   JointI=25   JointJ=34   IsCurved=No
 Frame=10   JointI=3   JointJ=6   IsCurved=No
 Frame=11   JointI=6   JointJ=9   IsCurved=No
 Frame=12   JointI=12   JointJ=14   IsCurved=No
 Frame=13   JointI=14   JointJ=17   IsCurved=No
 Frame=14   JointI=20   JointJ=22   IsCurved=No
 Frame=15   JointI=22   JointJ=25   IsCurved=No
 Frame=16   JointI=28   JointJ=31   IsCurved=No
 Frame=17   JointI=31   JointJ=34   IsCurved=No
 Frame=18   JointI=2   JointJ=11   IsCurved=No
 Frame=19   JointI=11   JointJ=19   IsCurved=No
 Frame=20   JointI=19   JointJ=27   IsCurved=No
# ... 38 like lines cut

TABLE:  "CONNECTIVITY - AREA"

 Area=59   NumJoints=4   Joint1=2   Joint2=11   Joint3=5   Joint4=35
 Area=60   NumJoints=4   Joint1=11   Joint2=19   Joint3=35   Joint4=36
 Area=61   NumJoints=4   Joint1=19   Joint2=27   Joint3=36   Joint4=30
 Area=62   NumJoints=4   Joint1=30   Joint2=33   Joint3=36   Joint4=24
 Area=63   NumJoints=4   Joint1=24   Joint2=16   Joint3=36   Joint4=35
 Area=64   NumJoints=4   Joint1=16   Joint2=8   Joint3=35   Joint4=5
 Area=65   NumJoints=4   Joint1=3   Joint2=12   Joint3=6   Joint4=14
 Area=66   NumJoints=4   Joint1=12   Joint2=20   Joint3=14   Joint4=22
 Area=67   NumJoints=4   Joint1=20   Joint2=28   Joint3=22   Joint4=31
 Area=68   NumJoints=4   Joint1=31   Joint2=34   Joint3=22   Joint4=25
 Area=69   NumJoints=4   Joint1=25   Joint2=17   Joint3=22   Joint4=14
 Area=70   NumJoints=4   Joint1=17   Joint2=9   Joint3=14   Joint4=6

TABLE:  "FRAME SECTION PROPERTIES 01 - GENERAL"

 SectionName=RECT_30x50   Material=MAT1   Shape=Rectangular   t2=0.5   t3=0.3   Area=0.15   TorsConst=0.016999999999999998   I33=0.0031249999999999997   I22=0.001125
 SectionName=RECT_70x70   Material=MAT1   Shape=Rectangular   t2=0.7   t3=0.7   Area=0.48999999999999994   TorsConst=0.1600666666666666   I33=0.020008333333333326   I22=0.020008333333333326
 SectionName=RECT_50x50   Material=MAT1   Shape=Rectangular   t2=0.5   t3=0.5   Area=0.25   TorsConst=0.041666666666666664   I33=0.005208333333333333   I22=0.005208333333333333
 SectionName=RECT_60x60   Material=MAT1   Shape=Rectangular   t2=0.6   t3=0.6   Area=0.36   TorsConst=0.08639999999999998   I33=0.010799999999999997   I22=0.010799999999999997

TABLE:  "AREA SECTION PROPERTIES"

 Section=SHELL_0.25   Material=MAT1   MatAngle=0   AreaType=Shell   Type=Shell-Thin   DrillDOF=Yes   Thickness=0.25   BendThick=0.25

TABLE:  "FRAME SECTION ASSIGNMENTS"

 Frame=1   AutoSelect=N.A.   AnalSect=RECT_30x50   MatProp=Default
 Frame=2   AutoSelect=N.A.   AnalSect=RECT_30x50   MatProp=Default
 Frame=3   AutoSelect=N.A.   AnalSect=RECT_30x50   MatProp=Default
 Frame=4   AutoSelect=N.A.   AnalSect=RECT_30x50   MatProp=Default
 Frame=5   AutoSelect=N.A.   AnalSect=RECT_30x50   MatProp=Default
 Frame=6   AutoSelect=N.A.   AnalSect=RECT_30x50   MatProp=Default
 Frame=7   AutoSelect=N.A.   AnalSect=RECT_30x50   MatProp=Default
 Frame=8   AutoSelect=N.A.   AnalSect=RECT_30x50   MatProp=Default
 Frame=9   AutoSelect=N.A.   AnalSect=RECT_30x50   MatProp=Default
 Frame=10   AutoSelect=N.A.   AnalSect=RECT_30x50   MatProp=Default
 Frame=11   AutoSelect=N.A.   AnalSect=RECT_30x50   MatProp=Default
 Frame=12   AutoSelect=N.A.   AnalSect=RECT_30x50   MatProp=Default
 Frame=13   AutoSelect=N.A.   AnalSect=RECT_30x50   MatProp=Default
 Frame=14   AutoSelect=N.A.   AnalSect=RECT_30x50   MatProp=Default
 Frame=15   AutoSelect=N.A.   AnalSect=RECT_30x50   MatProp=Default
 Frame=16   AutoSelect=N.A.   AnalSect=RECT_30x50   MatProp=Default
 Frame=17   AutoSelect=N.A.   AnalSect=RECT_30x50   MatProp=Default
 Frame=18   AutoSelect=N.A.   AnalSect=RECT_30x50   MatProp=Default
 Frame=19   AutoSelect=N.A.   AnalSect=RECT_30x50   MatProp=Default
 Frame=20   AutoSelect=N.A.   AnalSect=RECT_30x50   MatProp=Default
# ... 38 like lines cut

TABLE:  "AREA SECTION ASSIGNMENTS"

 Area=59   Section=SHELL_0.25   MatProp=Default
 Area=60   Section=SHELL_0.25   MatProp=Default
 Area=61   Section=SHELL_0.25   MatProp=Default
 Area=62   Section=SHELL_0.25   MatProp=Default
 Area=63   Section=SHELL_0.25   MatProp=Default
 Area=64   Section=SHELL_0.25   MatProp=Default
 Area=65   Section=SHELL_0.25   MatProp=Default
 Area=66   Section=SHELL_0.25   MatProp=Default
 Area=67   Section=SHELL_0.25   MatProp=Default
 Area=68   Section=SHELL_0.25   MatProp=Default
 Area=69   Section=SHELL_0.25   MatProp=Default
 Area=70   Section=SHELL_0.25   MatProp=Default

TABLE:  "LOAD PATTERN DEFINITIONS"

 LoadPat=DEAD   DesignType=Dead   SelfWtMult=1
 LoadPat=SDEAD   DesignType=Dead   SelfWtMult=1
 LoadPat=P   DesignType=Other   SelfWtMult=0
 LoadPat=LC16   DesignType=Other   SelfWtMult=0
 LoadPat=LC0   DesignType=Other   SelfWtMult=0

TABLE:  "LOAD CASE DEFINITIONS"

 Case=DEAD   Type=LinStatic   InitialCond=Zero   DesTypeOpt="Prog Det"   DesignType=Dead   DesActOpt="Prog Det"   DesignAct=Non-Composite   AutoType=None   RunCase=Yes
 Case=SDEAD   Type=LinStatic   InitialCond=Zero   DesTypeOpt="Prog Det"   DesignType=Dead   DesActOpt="Prog Det"   DesignAct=Non-Composite   AutoType=None   RunCase=Yes
 Case=P   Type=LinStatic   InitialCond=Zero   DesTypeOpt="Prog Det"   DesignType=Other   DesActOpt="Prog Det"   DesignAct=Non-Composite   AutoType=None   RunCase=Yes
 Case=LC16   Type=LinStatic   InitialCond=Zero   DesTypeOpt="Prog Det"   DesignType=Other   DesActOpt="Prog Det"   DesignAct=Non-Composite   AutoType=None   RunCase=Yes
 Case=LC0   Type=LinStatic   InitialCond=Zero   DesTypeOpt="Prog Det"   DesignType=Other   DesActOpt="Prog Det"   DesignAct=Non-Composite   AutoType=None   RunCase=Yes

TABLE:  "CASE - DEAD - LOAD ASSIGNMENTS"

 Case=DEAD   LoadType="Load pattern"   LoadName=DEAD   LoadSF=1

TABLE:  "CASE - SDEAD - LOAD ASSIGNMENTS"

 Case=SDEAD   LoadType="Load pattern"   LoadName=SDEAD   LoadSF=1

TABLE:  "CASE - P - LOAD ASSIGNMENTS"

 Case=P   LoadType="Load pattern"   LoadName=P   LoadSF=1

TABLE:  "CASE - LC16 - LOAD ASSIGNMENTS"

 Case=LC16   LoadType="Load pattern"   LoadName=LC16   LoadSF=1

TABLE:  "CASE - LC0 - LOAD ASSIGNMENTS"

 Case=LC0   LoadType="Load pattern"   LoadName=LC0   LoadSF=1

TABLE:  "JOINT LOADS - FORCE"

 Joint=3   LoadPat=LC0   CoordSys=GLOBAL   F1=3   F2=0   F3=0   M1=0   M2=0   M3=0
 Joint=6   LoadPat=LC0   CoordSys=GLOBAL   F1=3   F2=0   F3=0   M1=0   M2=0   M3=0
 Joint=9   LoadPat=LC0   CoordSys=GLOBAL   F1=3   F2=0   F3=0   M1=0   M2=0   M3=0

TABLE:  "AREA LOADS - UNIFORM"

 Area=59   LoadPat=LC16   CoordSys=GLOBAL   Dir=Gravity   UnifLoad=2
 Area=60   LoadPat=LC16   CoordSys=GLOBAL   Dir=Gravity   UnifLoad=2
 Area=61   LoadPat=LC16   CoordSys=GLOBAL   Dir=Gravity   UnifLoad=2
 Area=62   LoadPat=LC16   CoordSys=GLOBAL   Dir=Gravity   UnifLoad=2
 Area=63   LoadPat=LC16   CoordSys=GLOBAL   Dir=Gravity   UnifLoad=2
 Area=64   LoadPat=LC16   CoordSys=GLOBAL   Dir=Gravity   UnifLoad=2
 Area=65   LoadPat=LC16   CoordSys=GLOBAL   Dir=Gravity   UnifLoad=2
 Area=66   LoadPat=LC16   CoordSys=GLOBAL   Dir=Gravity   UnifLoad=2
 Area=67   LoadPat=LC16   CoordSys=GLOBAL   Dir=Gravity   UnifLoad=2
 Area=68   LoadPat=LC16   CoordSys=GLOBAL   Dir=Gravity   UnifLoad=2
 Area=69   LoadPat=LC16   CoordSys=GLOBAL   Dir=Gravity   UnifLoad=2
 Area=70   LoadPat=LC16   CoordSys=GLOBAL   Dir=Gravity   UnifLoad=2

END TABLE DATA